1

   Abaqus 3DEXPERIENCE R2018x                                  Date 07-Nov-2023   Time 13:02:11
   For use by AALTO UNIVERSITY under license from Dassault Systemes or its subsidiary.

 traction no Hydrogen                                                            
                                                                                 
 STEP    1     INCREMENT     1     STEP TIME    0.00    


                        S T E P       1     S T A T I C   A N A L Y S I S


                                                                                          

     AUTOMATIC TIME CONTROL WITH -
          A SUGGESTED INITIAL TIME INCREMENT OF                1.562E-02
          AND A TOTAL TIME PERIOD OF                            1.00    
          THE MINIMUM TIME INCREMENT ALLOWED IS                1.000E-05
          THE MAXIMUM TIME INCREMENT ALLOWED IS                0.100    

     LINEAR EQUATION SOLVER TYPE         DIRECT SPARSE

 CONVERGENCE TOLERANCE PARAMETERS FOR FORCE    
     CRITERION FOR RESIDUAL FORCE     FOR A NONLINEAR PROBLEM          5.000E-03
     CRITERION FOR DISP.    CORRECTION IN A NONLINEAR PROBLEM          1.000E-02
     INITIAL VALUE OF TIME AVERAGE FORCE                               1.000E-02
     AVERAGE FORCE     IS TIME AVERAGE FORCE    
     ALTERNATE CRIT. FOR RESIDUAL FORCE     FOR A NONLINEAR PROBLEM    2.000E-02
     CRITERION FOR ZERO FORCE     RELATIVE TO TIME AVRG. FORCE         1.000E-05
     CRITERION FOR RESIDUAL FORCE     WHEN THERE IS ZERO FLUX          1.000E-05
     CRITERION FOR DISP.    CORRECTION WHEN THERE IS ZERO FLUX         1.000E-03
     CRITERION FOR RESIDUAL FORCE     FOR A LINEAR INCREMENT           1.000E-08
     FIELD CONVERSION RATIO                                             1.00    
     CRITERION FOR ZERO FORCE     REL. TO TIME AVRG. MAX. FORCE        1.000E-05
     CRITERION FOR ZERO DISP.    RELATIVE TO CHARACTERISTIC LENGTH     1.000E-08

 CONVERGENCE TOLERANCE PARAMETERS FOR MOMENT   
     CRITERION FOR RESIDUAL MOMENT    FOR A NONLINEAR PROBLEM          5.000E-03
     CRITERION FOR ROTATION CORRECTION IN A NONLINEAR PROBLEM          1.000E-02
     INITIAL VALUE OF TIME AVERAGE MOMENT                              1.000E-02
     AVERAGE MOMENT    IS TIME AVERAGE MOMENT   
     ALTERNATE CRIT. FOR RESIDUAL MOMENT    FOR A NONLINEAR PROBLEM    2.000E-02
     CRITERION FOR ZERO MOMENT    RELATIVE TO TIME AVRG. MOMENT        1.000E-05
     CRITERION FOR RESIDUAL MOMENT    WHEN THERE IS ZERO FLUX          1.000E-05
     CRITERION FOR ROTATION CORRECTION WHEN THERE IS ZERO FLUX         1.000E-03
     CRITERION FOR RESIDUAL MOMENT    FOR A LINEAR INCREMENT           1.000E-08
     FIELD CONVERSION RATIO                                             1.00    
     CRITERION FOR ZERO MOMENT    REL. TO TIME AVRG. MAX. MOMENT       1.000E-05

     VOLUMETRIC STRAIN COMPATIBILITY TOLERANCE FOR HYBRID SOLIDS       1.000E-05
     AXIAL STRAIN COMPATIBILITY TOLERANCE FOR HYBRID BEAMS             1.000E-05
     TRANS. SHEAR STRAIN COMPATIBILITY TOLERANCE FOR HYBRID BEAMS      1.000E-05
     SOFT CONTACT CONSTRAINT COMPATIBILITY TOLERANCE FOR P>P0          5.000E-03
     SOFT CONTACT CONSTRAINT COMPATIBILITY TOLERANCE FOR P=0.0         0.100    
     CONTACT FORCE ERROR TOLERANCE FOR CONVERT SDI=YES                 1.00    
     DISPLACEMENT COMPATIBILITY TOLERANCE FOR DCOUP ELEMENTS           1.000E-05
     ROTATION COMPATIBILITY TOLERANCE FOR DCOUP ELEMENTS               1.000E-05

 EQUILIBRIUM WILL BE CHECKED FOR SEVERE DISCONTINUITY ITERATIONS

 TIME INCREMENTATION CONTROL PARAMETERS:
     FIRST EQUILIBRIUM ITERATION FOR CONSECUTIVE DIVERGENCE CHECK              4
     EQUILIBRIUM ITERATION AT WHICH LOG. CONVERGENCE RATE CHECK BEGINS         8
     EQUILIBRIUM ITERATION AFTER WHICH ALTERNATE RESIDUAL IS USED              9
     MAXIMUM EQUILIBRIUM ITERATIONS ALLOWED                                   16
     EQUILIBRIUM ITERATION COUNT FOR CUT-BACK IN NEXT INCREMENT               10
     MAXIMUM EQUILIB. ITERS IN TWO INCREMENTS FOR TIME INCREMENT INCREASE      4
     MAXIMUM ITERATIONS FOR SEVERE DISCONTINUITIES                            50
     MAXIMUM ATTEMPTS ALLOWED IN AN INCREMENT                                  5
     MAXIMUM DISCON. ITERS IN TWO INCREMENTS FOR TIME INCREMENT INCREASE      50
     MAXIMUM CONTACT AUGMENTATIONS FOR *SURFACE BEHAVIOR,AUGMENTED LAGRANGE   50
     CUT-BACK FACTOR AFTER DIVERGENCE                                 0.2500    
     CUT-BACK FACTOR FOR TOO SLOW CONVERGENCE                         0.5000    
     CUT-BACK FACTOR AFTER TOO MANY EQUILIBRIUM ITERATIONS            0.7500    
     CUT-BACK FACTOR AFTER TOO MANY SEVERE DISCONTINUITY ITERATIONS   0.2500    
     CUT-BACK FACTOR AFTER PROBLEMS IN ELEMENT ASSEMBLY               0.2500    
     INCREASE FACTOR AFTER TWO INCREMENTS THAT CONVERGE QUICKLY        1.500    
     MAX. TIME INCREMENT INCREASE FACTOR ALLOWED                       1.500    
     MAX. TIME INCREMENT INCREASE FACTOR ALLOWED (DYNAMICS)            1.250    
     MAX. TIME INCREMENT INCREASE FACTOR ALLOWED (DIFFUSION)           2.000    
     MINIMUM TIME INCREMENT RATIO FOR EXTRAPOLATION TO OCCUR          0.1000    
     MAX. RATIO OF TIME INCREMENT TO STABILITY LIMIT                   1.000    
     FRACTION OF STABILITY LIMIT FOR NEW TIME INCREMENT               0.9500    
     TIME INCREMENT INCREASE FACTOR BEFORE A TIME POINT                1.000    
     GLOBAL STABILIZATION CONTROL IS NOT USED

          PRINT OF INCREMENT NUMBER, TIME, ETC., EVERY    1  INCREMENTS

     THE MAXIMUM NUMBER OF INCREMENTS IN THIS STEP IS                     500

     LINEAR EXTRAPOLATION WILL BE USED

     CHARACTERISTIC ELEMENT LENGTH     0.116    

     DETAILS REGARDING ACTUAL SOLUTION WAVEFRONT REQUESTED

     DETAILED OUTPUT OF DIAGNOSTICS TO DATABASE REQUESTED

     PRINT OF INCREMENT NUMBER, TIME, ETC., TO THE MESSAGE FILE EVERY     1  INCREMENTS

     COLLECTING MODEL CONSTRAINT INFORMATION FOR OVERCONSTRAINT CHECKS

     COLLECTING STEP CONSTRAINT INFORMATION FOR OVERCONSTRAINT CHECKS


  INCREMENT     1 STARTS. ATTEMPT NUMBER  1, TIME INCREMENT  1.562E-02

 ***WARNING: THERE ARE 508 UNCONNECTED REGIONS IN THE MODEL.

  NUMBER OF EQUATIONS =     16235     NUMBER OF RHS =    1
  NUMBER OF FLOATING PT. OPERATIONS =  9.71E+07

     CHECK POINT   START OF SOLVER    

     CHECK POINT  END OF SOLVER       

       ELAPSED USER TIME (SEC)      =  0.10000    
       ELAPSED SYSTEM TIME (SEC)    =   0.0000    
       ELAPSED TOTAL CPU TIME (SEC) =  0.10000    
       ELAPSED WALLCLOCK TIME (SEC) =          0

               CONVERGENCE CHECKS FOR EQUILIBRIUM ITERATION     1


 AVERAGE FORCE                       13.7       TIME AVG. FORCE        13.7    
 LARGEST RESIDUAL FORCE             3.469E-11   AT NODE       8885   DOF  1
 LARGEST INCREMENT OF DISP.         1.254E-02   AT NODE    1377857   DOF  2
 LARGEST CORRECTION TO DISP.        1.254E-02   AT NODE    1377857   DOF  2
          THE FORCE     EQUILIBRIUM RESPONSE WAS LINEAR IN THIS INCREMENT

 AVERAGE MOMENT                     9.492E-17   TIME AVG. MOMENT       1.59    
                                                (FROM FORCE     FIELD)
 LARGEST RESIDUAL MOMENT            1.896E-16   AT NODE   50000001   DOF  6
 LARGEST INCREMENT OF ROTATION      6.770E-04   AT NODE   50000001   DOF  6
 LARGEST CORRECTION TO ROTATION     6.770E-04   AT NODE   50000001   DOF  6
          THERE IS ZERO MOMENT    EVERYWHERE

 ITERATION SUMMARY FOR THE INCREMENT:   1 TOTAL ITERATIONS, OF WHICH
   0 ARE SEVERE DISCONTINUITY ITERATIONS AND  1 ARE EQUILIBRIUM ITERATIONS.

 TIME INCREMENT COMPLETED  1.562E-02,  FRACTION OF STEP COMPLETED  1.562E-02
 STEP TIME COMPLETED       1.562E-02,  TOTAL TIME COMPLETED        1.562E-02


  INCREMENT     2 STARTS. ATTEMPT NUMBER  1, TIME INCREMENT  1.562E-02

  NUMBER OF EQUATIONS =     16235     NUMBER OF RHS =    1
  NUMBER OF FLOATING PT. OPERATIONS =  9.71E+07

     CHECK POINT   START OF SOLVER    

     CHECK POINT  END OF SOLVER       

       ELAPSED USER TIME (SEC)      =   0.0000    
       ELAPSED SYSTEM TIME (SEC)    =   0.0000    
       ELAPSED TOTAL CPU TIME (SEC) =   0.0000    
       ELAPSED WALLCLOCK TIME (SEC) =          0

               CONVERGENCE CHECKS FOR EQUILIBRIUM ITERATION     1


 AVERAGE FORCE                       27.6       TIME AVG. FORCE        20.7    
 LARGEST RESIDUAL FORCE            -0.627       AT NODE       2688   DOF  2
 LARGEST INCREMENT OF DISP.         1.254E-02   AT NODE    1377857   DOF  2
 LARGEST CORRECTION TO DISP.       -4.598E-07   AT NODE       2689   DOF  1
          FORCE     EQUILIBRIUM NOT ACHIEVED WITHIN TOLERANCE.

 AVERAGE MOMENT                     1.085E-16   TIME AVG. MOMENT       1.59    
                                                (FROM FORCE     FIELD)
 LARGEST RESIDUAL MOMENT            2.168E-16   AT NODE   50000001   DOF  6
 LARGEST INCREMENT OF ROTATION      6.770E-04   AT NODE   50000001   DOF  6
 LARGEST CORRECTION TO ROTATION    -4.854E-10   AT NODE   50000001   DOF  6
          THERE IS ZERO MOMENT    EVERYWHERE

  NUMBER OF EQUATIONS =     16235     NUMBER OF RHS =    1
  NUMBER OF FLOATING PT. OPERATIONS =  9.71E+07

     CHECK POINT   START OF SOLVER    

     CHECK POINT  END OF SOLVER       

       ELAPSED USER TIME (SEC)      =   0.0000    
       ELAPSED SYSTEM TIME (SEC)    =   0.0000    
       ELAPSED TOTAL CPU TIME (SEC) =   0.0000    
       ELAPSED WALLCLOCK TIME (SEC) =          0

               CONVERGENCE CHECKS FOR EQUILIBRIUM ITERATION     2


 AVERAGE FORCE                       27.6       TIME AVG. FORCE        20.7    
 LARGEST RESIDUAL FORCE             4.580E-03   AT NODE       4736   DOF  1
 LARGEST INCREMENT OF DISP.         1.254E-02   AT NODE    1377857   DOF  2
 LARGEST CORRECTION TO DISP.       -6.781E-07   AT NODE       2689   DOF  1
          THE FORCE     EQUILIBRIUM EQUATIONS HAVE CONVERGED

 AVERAGE MOMENT                     1.085E-16   TIME AVG. MOMENT       1.59    
                                                (FROM FORCE     FIELD)
 LARGEST RESIDUAL MOMENT           -2.168E-16   AT NODE   50000001   DOF  6
 LARGEST INCREMENT OF ROTATION      6.770E-04   AT NODE   50000001   DOF  6
 LARGEST CORRECTION TO ROTATION    -7.091E-10   AT NODE   50000001   DOF  6
          THERE IS ZERO MOMENT    EVERYWHERE
          TIME INCREMENT MAY NOW INCREASE TO    2.344E-02

 ITERATION SUMMARY FOR THE INCREMENT:   2 TOTAL ITERATIONS, OF WHICH
   0 ARE SEVERE DISCONTINUITY ITERATIONS AND  2 ARE EQUILIBRIUM ITERATIONS.

 TIME INCREMENT COMPLETED  1.562E-02,  FRACTION OF STEP COMPLETED  3.125E-02
 STEP TIME COMPLETED       3.125E-02,  TOTAL TIME COMPLETED        3.125E-02


  INCREMENT     3 STARTS. ATTEMPT NUMBER  1, TIME INCREMENT  2.344E-02

  NUMBER OF EQUATIONS =     16235     NUMBER OF RHS =    1
  NUMBER OF FLOATING PT. OPERATIONS =  9.71E+07

     CHECK POINT   START OF SOLVER    

     CHECK POINT  END OF SOLVER       

       ELAPSED USER TIME (SEC)      =   0.0000    
       ELAPSED SYSTEM TIME (SEC)    =   0.0000    
       ELAPSED TOTAL CPU TIME (SEC) =   0.0000    
       ELAPSED WALLCLOCK TIME (SEC) =          0

               CONVERGENCE CHECKS FOR EQUILIBRIUM ITERATION     1


 AVERAGE FORCE                       48.3       TIME AVG. FORCE        29.9    
 LARGEST RESIDUAL FORCE              16.0       AT NODE       2690   DOF  2
 LARGEST INCREMENT OF DISP.         1.882E-02   AT NODE    1377857   DOF  2
 LARGEST CORRECTION TO DISP.        1.756E-04   AT NODE        643   DOF  2
          FORCE     EQUILIBRIUM NOT ACHIEVED WITHIN TOLERANCE.

 AVERAGE MOMENT                     1.327E-20   TIME AVG. MOMENT       2.41    
                                                (FROM FORCE     FIELD)
 LARGEST RESIDUAL MOMENT            2.654E-20   AT NODE   50000001   DOF  6
 LARGEST INCREMENT OF ROTATION      1.015E-03   AT NODE   50000001   DOF  6
 LARGEST CORRECTION TO ROTATION    -5.932E-07   AT NODE   50000001   DOF  6
          THERE IS ZERO MOMENT    EVERYWHERE

  NUMBER OF EQUATIONS =     16235     NUMBER OF RHS =    1
  NUMBER OF FLOATING PT. OPERATIONS =  9.71E+07

     CHECK POINT   START OF SOLVER    

     CHECK POINT  END OF SOLVER       

       ELAPSED USER TIME (SEC)      =   0.0000    
       ELAPSED SYSTEM TIME (SEC)    =   0.0000    
       ELAPSED TOTAL CPU TIME (SEC) =   0.0000    
       ELAPSED WALLCLOCK TIME (SEC) =          0

               CONVERGENCE CHECKS FOR EQUILIBRIUM ITERATION     2


 AVERAGE FORCE                       48.3       TIME AVG. FORCE        29.9    
 LARGEST RESIDUAL FORCE             0.963       AT NODE       2690   DOF  2
 LARGEST INCREMENT OF DISP.         1.882E-02   AT NODE    1377857   DOF  2
 LARGEST CORRECTION TO DISP.       -6.820E-05   AT NODE       2689   DOF  1
          FORCE     EQUILIBRIUM NOT ACHIEVED WITHIN TOLERANCE.

 AVERAGE MOMENT                     2.171E-16   TIME AVG. MOMENT       2.41    
                                                (FROM FORCE     FIELD)
 LARGEST RESIDUAL MOMENT           -4.337E-16   AT NODE   50000001   DOF  6
 LARGEST INCREMENT OF ROTATION      1.015E-03   AT NODE   50000001   DOF  6
 LARGEST CORRECTION TO ROTATION    -9.199E-08   AT NODE   50000001   DOF  6
          THERE IS ZERO MOMENT    EVERYWHERE

  NUMBER OF EQUATIONS =     16235     NUMBER OF RHS =    1
  NUMBER OF FLOATING PT. OPERATIONS =  9.71E+07

     CHECK POINT   START OF SOLVER    

     CHECK POINT  END OF SOLVER       

       ELAPSED USER TIME (SEC)      =   0.0000    
       ELAPSED SYSTEM TIME (SEC)    =   0.0000    
       ELAPSED TOTAL CPU TIME (SEC) =   0.0000    
       ELAPSED WALLCLOCK TIME (SEC) =          0

               CONVERGENCE CHECKS FOR EQUILIBRIUM ITERATION     3


 AVERAGE FORCE                       48.3       TIME AVG. FORCE        29.9    
 LARGEST RESIDUAL FORCE             4.027E-03   AT NODE      17027   DOF  2
 LARGEST INCREMENT OF DISP.         1.882E-02   AT NODE    1377857   DOF  2
 LARGEST CORRECTION TO DISP.        3.798E-06   AT NODE        642   DOF  2
          THE FORCE     EQUILIBRIUM EQUATIONS HAVE CONVERGED

 AVERAGE MOMENT                     2.171E-16   TIME AVG. MOMENT       2.41    
                                                (FROM FORCE     FIELD)
 LARGEST RESIDUAL MOMENT            4.337E-16   AT NODE   50000001   DOF  6
 LARGEST INCREMENT OF ROTATION      1.015E-03   AT NODE   50000001   DOF  6
 LARGEST CORRECTION TO ROTATION    -4.279E-09   AT NODE   50000001   DOF  6
          THERE IS ZERO MOMENT    EVERYWHERE
          TIME INCREMENT MAY NOW INCREASE TO    3.516E-02

 ITERATION SUMMARY FOR THE INCREMENT:   3 TOTAL ITERATIONS, OF WHICH
   0 ARE SEVERE DISCONTINUITY ITERATIONS AND  3 ARE EQUILIBRIUM ITERATIONS.

 TIME INCREMENT COMPLETED  2.344E-02,  FRACTION OF STEP COMPLETED  5.469E-02
 STEP TIME COMPLETED       5.469E-02,  TOTAL TIME COMPLETED        5.469E-02


  INCREMENT     4 STARTS. ATTEMPT NUMBER  1, TIME INCREMENT  3.516E-02

  NUMBER OF EQUATIONS =     16235     NUMBER OF RHS =    1
  NUMBER OF FLOATING PT. OPERATIONS =  9.71E+07

     CHECK POINT   START OF SOLVER    

     CHECK POINT  END OF SOLVER       

       ELAPSED USER TIME (SEC)      =  0.10000    
       ELAPSED SYSTEM TIME (SEC)    =   0.0000    
       ELAPSED TOTAL CPU TIME (SEC) =  0.10000    
       ELAPSED WALLCLOCK TIME (SEC) =          0

               CONVERGENCE CHECKS FOR EQUILIBRIUM ITERATION     1


 AVERAGE FORCE                       78.9       TIME AVG. FORCE        42.1    
 LARGEST RESIDUAL FORCE              205.       AT NODE        638   DOF  2
 LARGEST INCREMENT OF DISP.         2.822E-02   AT NODE    1377857   DOF  2
 LARGEST CORRECTION TO DISP.        7.462E-04   AT NODE        643   DOF  2
          FORCE     EQUILIBRIUM NOT ACHIEVED WITHIN TOLERANCE.

 AVERAGE MOMENT                     8.624E-20   TIME AVG. MOMENT       3.48    
                                                (FROM FORCE     FIELD)
 LARGEST RESIDUAL MOMENT            1.725E-19   AT NODE   50000001   DOF  6
 LARGEST INCREMENT OF ROTATION      1.518E-03   AT NODE   50000001   DOF  6
 LARGEST CORRECTION TO ROTATION    -3.915E-06   AT NODE   50000001   DOF  6
          THERE IS ZERO MOMENT    EVERYWHERE

  NUMBER OF EQUATIONS =     16235     NUMBER OF RHS =    1
  NUMBER OF FLOATING PT. OPERATIONS =  9.71E+07

     CHECK POINT   START OF SOLVER    

     CHECK POINT  END OF SOLVER       

       ELAPSED USER TIME (SEC)      =   0.0000    
       ELAPSED SYSTEM TIME (SEC)    =   0.0000    
       ELAPSED TOTAL CPU TIME (SEC) =   0.0000    
       ELAPSED WALLCLOCK TIME (SEC) =          0

               CONVERGENCE CHECKS FOR EQUILIBRIUM ITERATION     2


 AVERAGE FORCE                       78.8       TIME AVG. FORCE        42.1    
 LARGEST RESIDUAL FORCE             -19.2       AT NODE        638   DOF  2
 LARGEST INCREMENT OF DISP.         2.822E-02   AT NODE    1377857   DOF  2
 LARGEST CORRECTION TO DISP.        2.699E-04   AT NODE        638   DOF  2
          FORCE     EQUILIBRIUM NOT ACHIEVED WITHIN TOLERANCE.

 AVERAGE MOMENT                     4.341E-16   TIME AVG. MOMENT       3.48    
                                                (FROM FORCE     FIELD)
 LARGEST RESIDUAL MOMENT            8.674E-16   AT NODE   50000001   DOF  6
 LARGEST INCREMENT OF ROTATION      1.518E-03   AT NODE   50000001   DOF  6
 LARGEST CORRECTION TO ROTATION    -5.829E-07   AT NODE   50000001   DOF  6
          THERE IS ZERO MOMENT    EVERYWHERE

  NUMBER OF EQUATIONS =     16235     NUMBER OF RHS =    1
  NUMBER OF FLOATING PT. OPERATIONS =  9.71E+07

     CHECK POINT   START OF SOLVER    

     CHECK POINT  END OF SOLVER       

       ELAPSED USER TIME (SEC)      =   0.0000    
       ELAPSED SYSTEM TIME (SEC)    =   0.0000    
       ELAPSED TOTAL CPU TIME (SEC) =   0.0000    
       ELAPSED WALLCLOCK TIME (SEC) =          0

               CONVERGENCE CHECKS FOR EQUILIBRIUM ITERATION     3


 AVERAGE FORCE                       78.8       TIME AVG. FORCE        42.1    
 LARGEST RESIDUAL FORCE             -2.25       AT NODE        638   DOF  2
 LARGEST INCREMENT OF DISP.         2.822E-02   AT NODE    1377857   DOF  2
 LARGEST CORRECTION TO DISP.        1.891E-05   AT NODE        642   DOF  2
          FORCE     EQUILIBRIUM NOT ACHIEVED WITHIN TOLERANCE.

 AVERAGE MOMENT                     4.341E-16   TIME AVG. MOMENT       3.48    
                                                (FROM FORCE     FIELD)
 LARGEST RESIDUAL MOMENT           -8.674E-16   AT NODE   50000001   DOF  6
 LARGEST INCREMENT OF ROTATION      1.518E-03   AT NODE   50000001   DOF  6
 LARGEST CORRECTION TO ROTATION    -2.306E-08   AT NODE   50000001   DOF  6
          THERE IS ZERO MOMENT    EVERYWHERE

  NUMBER OF EQUATIONS =     16235     NUMBER OF RHS =    1
  NUMBER OF FLOATING PT. OPERATIONS =  9.71E+07

     CHECK POINT   START OF SOLVER    

     CHECK POINT  END OF SOLVER       

       ELAPSED USER TIME (SEC)      =   0.0000    
       ELAPSED SYSTEM TIME (SEC)    =   0.0000    
       ELAPSED TOTAL CPU TIME (SEC) =   0.0000    
       ELAPSED WALLCLOCK TIME (SEC) =          0

               CONVERGENCE CHECKS FOR EQUILIBRIUM ITERATION     4


 AVERAGE FORCE                       78.8       TIME AVG. FORCE        42.1    
 LARGEST RESIDUAL FORCE            -2.169E-02   AT NODE        638   DOF  2
 LARGEST INCREMENT OF DISP.         2.822E-02   AT NODE    1377857   DOF  2
 LARGEST CORRECTION TO DISP.       -1.276E-06   AT NODE   70000639   DOF  1
          THE FORCE     EQUILIBRIUM EQUATIONS HAVE CONVERGED

 AVERAGE MOMENT                     2.171E-16   TIME AVG. MOMENT       3.48    
                                                (FROM FORCE     FIELD)
 LARGEST RESIDUAL MOMENT            4.337E-16   AT NODE   50000001   DOF  6
 LARGEST INCREMENT OF ROTATION      1.518E-03   AT NODE   50000001   DOF  6
 LARGEST CORRECTION TO ROTATION    -7.306E-10   AT NODE   50000001   DOF  6
          THERE IS ZERO MOMENT    EVERYWHERE
          TIME INCREMENT MAY NOW INCREASE TO    5.273E-02

 ITERATION SUMMARY FOR THE INCREMENT:   4 TOTAL ITERATIONS, OF WHICH
   0 ARE SEVERE DISCONTINUITY ITERATIONS AND  4 ARE EQUILIBRIUM ITERATIONS.

 TIME INCREMENT COMPLETED  3.516E-02,  FRACTION OF STEP COMPLETED  8.984E-02
 STEP TIME COMPLETED       8.984E-02,  TOTAL TIME COMPLETED        8.984E-02


  INCREMENT     5 STARTS. ATTEMPT NUMBER  1, TIME INCREMENT  5.273E-02

  NUMBER OF EQUATIONS =     16235     NUMBER OF RHS =    1
  NUMBER OF FLOATING PT. OPERATIONS =  9.71E+07

     CHECK POINT   START OF SOLVER    

     CHECK POINT  END OF SOLVER       

       ELAPSED USER TIME (SEC)      =  0.10000    
       ELAPSED SYSTEM TIME (SEC)    =   0.0000    
       ELAPSED TOTAL CPU TIME (SEC) =  0.10000    
       ELAPSED WALLCLOCK TIME (SEC) =          0

               CONVERGENCE CHECKS FOR EQUILIBRIUM ITERATION     1


 AVERAGE FORCE                       123.       TIME AVG. FORCE        58.3    
 LARGEST RESIDUAL FORCE              328.       AT NODE        634   DOF  2
 LARGEST INCREMENT OF DISP.         4.233E-02   AT NODE    1377857   DOF  2
 LARGEST CORRECTION TO DISP.        1.553E-03   AT NODE       4744   DOF  2
          FORCE     EQUILIBRIUM NOT ACHIEVED WITHIN TOLERANCE.

 AVERAGE MOMENT                     4.338E-16   TIME AVG. MOMENT       4.90    
                                                (FROM FORCE     FIELD)
 LARGEST RESIDUAL MOMENT           -8.667E-16   AT NODE   50000001   DOF  6
 LARGEST INCREMENT OF ROTATION      2.261E-03   AT NODE   50000001   DOF  6
 LARGEST CORRECTION TO ROTATION    -1.518E-05   AT NODE   50000001   DOF  6
          THERE IS ZERO MOMENT    EVERYWHERE

  NUMBER OF EQUATIONS =     16235     NUMBER OF RHS =    1
  NUMBER OF FLOATING PT. OPERATIONS =  9.71E+07

     CHECK POINT   START OF SOLVER    

     CHECK POINT  END OF SOLVER       

       ELAPSED USER TIME (SEC)      =  0.10000    
       ELAPSED SYSTEM TIME (SEC)    =   0.0000    
       ELAPSED TOTAL CPU TIME (SEC) =  0.10000    
       ELAPSED WALLCLOCK TIME (SEC) =          0

               CONVERGENCE CHECKS FOR EQUILIBRIUM ITERATION     2


 AVERAGE FORCE                       123.       TIME AVG. FORCE        58.3    
 LARGEST RESIDUAL FORCE              104.       AT NODE       2688   DOF  1
 LARGEST INCREMENT OF DISP.         4.233E-02   AT NODE    1377857   DOF  2
 LARGEST CORRECTION TO DISP.        5.121E-04   AT NODE        634   DOF  2
          FORCE     EQUILIBRIUM NOT ACHIEVED WITHIN TOLERANCE.

 AVERAGE MOMENT                     4.341E-16   TIME AVG. MOMENT       4.90    
                                                (FROM FORCE     FIELD)
 LARGEST RESIDUAL MOMENT            8.674E-16   AT NODE   50000001   DOF  6
 LARGEST INCREMENT OF ROTATION      2.260E-03   AT NODE   50000001   DOF  6
 LARGEST CORRECTION TO ROTATION    -1.154E-06   AT NODE   50000001   DOF  6
          THERE IS ZERO MOMENT    EVERYWHERE

  NUMBER OF EQUATIONS =     16235     NUMBER OF RHS =    1
  NUMBER OF FLOATING PT. OPERATIONS =  9.71E+07

     CHECK POINT   START OF SOLVER    

     CHECK POINT  END OF SOLVER       

       ELAPSED USER TIME (SEC)      =  0.10000    
       ELAPSED SYSTEM TIME (SEC)    =   0.0000    
       ELAPSED TOTAL CPU TIME (SEC) =  0.10000    
       ELAPSED WALLCLOCK TIME (SEC) =          0

               CONVERGENCE CHECKS FOR EQUILIBRIUM ITERATION     3


 AVERAGE FORCE                       123.       TIME AVG. FORCE        58.3    
 LARGEST RESIDUAL FORCE             -143.       AT NODE        640   DOF  2
 LARGEST INCREMENT OF DISP.         4.233E-02   AT NODE    1377857   DOF  2
 LARGEST CORRECTION TO DISP.        1.287E-03   AT NODE        640   DOF  2
          FORCE     EQUILIBRIUM NOT ACHIEVED WITHIN TOLERANCE.

 AVERAGE MOMENT                     4.341E-16   TIME AVG. MOMENT       4.90    
                                                (FROM FORCE     FIELD)
 LARGEST RESIDUAL MOMENT           -8.674E-16   AT NODE   50000001   DOF  6
 LARGEST INCREMENT OF ROTATION      2.260E-03   AT NODE   50000001   DOF  6
 LARGEST CORRECTION TO ROTATION    -5.309E-08   AT NODE   50000001   DOF  6
          THERE IS ZERO MOMENT    EVERYWHERE

  NUMBER OF EQUATIONS =     16235     NUMBER OF RHS =    1
  NUMBER OF FLOATING PT. OPERATIONS =  9.71E+07

     CHECK POINT   START OF SOLVER    

     CHECK POINT  END OF SOLVER       

       ELAPSED USER TIME (SEC)      =  0.10000    
       ELAPSED SYSTEM TIME (SEC)    =   0.0000    
       ELAPSED TOTAL CPU TIME (SEC) =  0.10000    
       ELAPSED WALLCLOCK TIME (SEC) =          0

               CONVERGENCE CHECKS FOR EQUILIBRIUM ITERATION     4


 AVERAGE FORCE                       123.       TIME AVG. FORCE        58.3    
 LARGEST RESIDUAL FORCE              858.       AT NODE        640   DOF  2
 LARGEST INCREMENT OF DISP.         4.233E-02   AT NODE    1377857   DOF  2
 LARGEST CORRECTION TO DISP.       -2.940E-03   AT NODE        640   DOF  2
          FORCE     EQUILIBRIUM NOT ACHIEVED WITHIN TOLERANCE.

 AVERAGE MOMENT                     4.341E-16   TIME AVG. MOMENT       4.90    
                                                (FROM FORCE     FIELD)
 LARGEST RESIDUAL MOMENT            8.674E-16   AT NODE   50000001   DOF  6
 LARGEST INCREMENT OF ROTATION      2.260E-03   AT NODE   50000001   DOF  6
 LARGEST CORRECTION TO ROTATION     2.193E-07   AT NODE   50000001   DOF  6
          THERE IS ZERO MOMENT    EVERYWHERE
 

 ***NOTE: THE SOLUTION APPEARS TO BE DIVERGING. CONVERGENCE IS JUDGED UNLIKELY.


  INCREMENT     5 STARTS. ATTEMPT NUMBER  2, TIME INCREMENT  1.318E-02

  NUMBER OF EQUATIONS =     16235     NUMBER OF RHS =    1
  NUMBER OF FLOATING PT. OPERATIONS =  9.71E+07

     CHECK POINT   START OF SOLVER    

     CHECK POINT  END OF SOLVER       

       ELAPSED USER TIME (SEC)      =   0.0000    
       ELAPSED SYSTEM TIME (SEC)    =   0.0000    
       ELAPSED TOTAL CPU TIME (SEC) =   0.0000    
       ELAPSED WALLCLOCK TIME (SEC) =          0

               CONVERGENCE CHECKS FOR EQUILIBRIUM ITERATION     1


 AVERAGE FORCE                       90.1       TIME AVG. FORCE        51.7    
 LARGEST RESIDUAL FORCE              8.77       AT NODE      17034   DOF  1
 LARGEST INCREMENT OF DISP.         1.058E-02   AT NODE    1377857   DOF  2
 LARGEST CORRECTION TO DISP.        2.174E-04   AT NODE      10887   DOF  2
          FORCE     EQUILIBRIUM NOT ACHIEVED WITHIN TOLERANCE.

 AVERAGE MOMENT                     4.146E-20   TIME AVG. MOMENT       4.90    
                                                (FROM FORCE     FIELD)
 LARGEST RESIDUAL MOMENT            8.293E-20   AT NODE   50000001   DOF  6
 LARGEST INCREMENT OF ROTATION      5.672E-04   AT NODE   50000001   DOF  6
 LARGEST CORRECTION TO ROTATION    -1.889E-06   AT NODE   50000001   DOF  6
          THERE IS ZERO MOMENT    EVERYWHERE

  NUMBER OF EQUATIONS =     16235     NUMBER OF RHS =    1
  NUMBER OF FLOATING PT. OPERATIONS =  9.71E+07

     CHECK POINT   START OF SOLVER    

     CHECK POINT  END OF SOLVER       

       ELAPSED USER TIME (SEC)      =  0.10000    
       ELAPSED SYSTEM TIME (SEC)    =   0.0000    
       ELAPSED TOTAL CPU TIME (SEC) =  0.10000    
       ELAPSED WALLCLOCK TIME (SEC) =          0

               CONVERGENCE CHECKS FOR EQUILIBRIUM ITERATION     2


 AVERAGE FORCE                       90.1       TIME AVG. FORCE        51.7    
 LARGEST RESIDUAL FORCE             0.623       AT NODE      10888   DOF  1
 LARGEST INCREMENT OF DISP.         1.058E-02   AT NODE    1377857   DOF  2
 LARGEST CORRECTION TO DISP.        1.155E-05   AT NODE       6792   DOF  2
          FORCE     EQUILIBRIUM NOT ACHIEVED WITHIN TOLERANCE.

 AVERAGE MOMENT                     1.036E-21   TIME AVG. MOMENT       4.90    
                                                (FROM FORCE     FIELD)
 LARGEST RESIDUAL MOMENT            2.072E-21   AT NODE   50000001   DOF  6
 LARGEST INCREMENT OF ROTATION      5.672E-04   AT NODE   50000001   DOF  6
 LARGEST CORRECTION TO ROTATION    -4.634E-08   AT NODE   50000001   DOF  6
          THERE IS ZERO MOMENT    EVERYWHERE

  NUMBER OF EQUATIONS =     16235     NUMBER OF RHS =    1
  NUMBER OF FLOATING PT. OPERATIONS =  9.71E+07

     CHECK POINT   START OF SOLVER    

     CHECK POINT  END OF SOLVER       

       ELAPSED USER TIME (SEC)      =  0.10000    
       ELAPSED SYSTEM TIME (SEC)    =   0.0000    
       ELAPSED TOTAL CPU TIME (SEC) =  0.10000    
       ELAPSED WALLCLOCK TIME (SEC) =          0

               CONVERGENCE CHECKS FOR EQUILIBRIUM ITERATION     3


 AVERAGE FORCE                       90.1       TIME AVG. FORCE        51.7    
 LARGEST RESIDUAL FORCE            -5.121E-03   AT NODE      70257   DOF  2
 LARGEST INCREMENT OF DISP.         1.058E-02   AT NODE    1377857   DOF  2
 LARGEST CORRECTION TO DISP.       -8.282E-07   AT NODE       8838   DOF  1
          THE FORCE     EQUILIBRIUM EQUATIONS HAVE CONVERGED

 AVERAGE MOMENT                     6.695E-24   TIME AVG. MOMENT       4.90    
                                                (FROM FORCE     FIELD)
 LARGEST RESIDUAL MOMENT            1.339E-23   AT NODE   50000001   DOF  6
 LARGEST INCREMENT OF ROTATION      5.672E-04   AT NODE   50000001   DOF  6
 LARGEST CORRECTION TO ROTATION    -2.499E-10   AT NODE   50000001   DOF  6
          THERE IS ZERO MOMENT    EVERYWHERE
          TIME INCREMENT MAY NOW INCREASE TO    1.978E-02

 ITERATION SUMMARY FOR THE INCREMENT:   3 TOTAL ITERATIONS, OF WHICH
   0 ARE SEVERE DISCONTINUITY ITERATIONS AND  3 ARE EQUILIBRIUM ITERATIONS.

 TIME INCREMENT COMPLETED  1.318E-02,  FRACTION OF STEP COMPLETED  0.103    
 STEP TIME COMPLETED       0.103    ,  TOTAL TIME COMPLETED        0.103    


  INCREMENT     6 STARTS. ATTEMPT NUMBER  1, TIME INCREMENT  1.978E-02

  NUMBER OF EQUATIONS =     16235     NUMBER OF RHS =    1
  NUMBER OF FLOATING PT. OPERATIONS =  9.71E+07

     CHECK POINT   START OF SOLVER    

     CHECK POINT  END OF SOLVER       

       ELAPSED USER TIME (SEC)      =   0.0000    
       ELAPSED SYSTEM TIME (SEC)    =   0.0000    
       ELAPSED TOTAL CPU TIME (SEC) =   0.0000    
       ELAPSED WALLCLOCK TIME (SEC) =          0

               CONVERGENCE CHECKS FOR EQUILIBRIUM ITERATION     1


 AVERAGE FORCE                       107.       TIME AVG. FORCE        60.9    
 LARGEST RESIDUAL FORCE             -13.3       AT NODE        640   DOF  2
 LARGEST INCREMENT OF DISP.         1.587E-02   AT NODE    1377857   DOF  2
 LARGEST CORRECTION TO DISP.        2.355E-04   AT NODE       4742   DOF  2
          FORCE     EQUILIBRIUM NOT ACHIEVED WITHIN TOLERANCE.

 AVERAGE MOMENT                     5.380E-20   TIME AVG. MOMENT       6.02    
                                                (FROM FORCE     FIELD)
 LARGEST RESIDUAL MOMENT            1.076E-19   AT NODE   50000001   DOF  6
 LARGEST INCREMENT OF ROTATION      8.483E-04   AT NODE   50000001   DOF  6
 LARGEST CORRECTION TO ROTATION    -2.464E-06   AT NODE   50000001   DOF  6
          THERE IS ZERO MOMENT    EVERYWHERE

  NUMBER OF EQUATIONS =     16235     NUMBER OF RHS =    1
  NUMBER OF FLOATING PT. OPERATIONS =  9.71E+07

     CHECK POINT   START OF SOLVER    

     CHECK POINT  END OF SOLVER       

       ELAPSED USER TIME (SEC)      =   0.0000    
       ELAPSED SYSTEM TIME (SEC)    =   0.0000    
       ELAPSED TOTAL CPU TIME (SEC) =   0.0000    
       ELAPSED WALLCLOCK TIME (SEC) =          0

               CONVERGENCE CHECKS FOR EQUILIBRIUM ITERATION     2


 AVERAGE FORCE                       107.       TIME AVG. FORCE        60.9    
 LARGEST RESIDUAL FORCE             -1.61       AT NODE      74381   DOF  1
 LARGEST INCREMENT OF DISP.         1.587E-02   AT NODE    1377857   DOF  2
 LARGEST CORRECTION TO DISP.        1.447E-05   AT NODE      19086   DOF  2
          FORCE     EQUILIBRIUM NOT ACHIEVED WITHIN TOLERANCE.

 AVERAGE MOMENT                     1.765E-21   TIME AVG. MOMENT       6.02    
                                                (FROM FORCE     FIELD)
 LARGEST RESIDUAL MOMENT            3.529E-21   AT NODE   50000001   DOF  6
 LARGEST INCREMENT OF ROTATION      8.482E-04   AT NODE   50000001   DOF  6
 LARGEST CORRECTION TO ROTATION    -7.934E-08   AT NODE   50000001   DOF  6
          THERE IS ZERO MOMENT    EVERYWHERE

  NUMBER OF EQUATIONS =     16235     NUMBER OF RHS =    1
  NUMBER OF FLOATING PT. OPERATIONS =  9.71E+07

     CHECK POINT   START OF SOLVER    

     CHECK POINT  END OF SOLVER       

       ELAPSED USER TIME (SEC)      =   0.0000    
       ELAPSED SYSTEM TIME (SEC)    =   0.0000    
       ELAPSED TOTAL CPU TIME (SEC) =   0.0000    
       ELAPSED WALLCLOCK TIME (SEC) =          0

               CONVERGENCE CHECKS FOR EQUILIBRIUM ITERATION     3


 AVERAGE FORCE                       107.       TIME AVG. FORCE        60.9    
 LARGEST RESIDUAL FORCE            -8.281E-04   AT NODE      21132   DOF  2
 LARGEST INCREMENT OF DISP.         1.587E-02   AT NODE    1377857   DOF  2
 LARGEST CORRECTION TO DISP.       -8.505E-07   AT NODE      74381   DOF  1
          THE FORCE     EQUILIBRIUM EQUATIONS HAVE CONVERGED

 AVERAGE MOMENT                     1.367E-23   TIME AVG. MOMENT       6.02    
                                                (FROM FORCE     FIELD)
 LARGEST RESIDUAL MOMENT            2.734E-23   AT NODE   50000001   DOF  6
 LARGEST INCREMENT OF ROTATION      8.482E-04   AT NODE   50000001   DOF  6
 LARGEST CORRECTION TO ROTATION    -5.864E-10   AT NODE   50000001   DOF  6
          THERE IS ZERO MOMENT    EVERYWHERE
          TIME INCREMENT MAY NOW INCREASE TO    2.966E-02

 ITERATION SUMMARY FOR THE INCREMENT:   3 TOTAL ITERATIONS, OF WHICH
   0 ARE SEVERE DISCONTINUITY ITERATIONS AND  3 ARE EQUILIBRIUM ITERATIONS.

 TIME INCREMENT COMPLETED  1.978E-02,  FRACTION OF STEP COMPLETED  0.123    
 STEP TIME COMPLETED       0.123    ,  TOTAL TIME COMPLETED        0.123    


  INCREMENT     7 STARTS. ATTEMPT NUMBER  1, TIME INCREMENT  2.966E-02

  NUMBER OF EQUATIONS =     16235     NUMBER OF RHS =    1
  NUMBER OF FLOATING PT. OPERATIONS =  9.71E+07

     CHECK POINT   START OF SOLVER    

     CHECK POINT  END OF SOLVER       

       ELAPSED USER TIME (SEC)      =   0.0000    
       ELAPSED SYSTEM TIME (SEC)    =   0.0000    
       ELAPSED TOTAL CPU TIME (SEC) =   0.0000    
       ELAPSED WALLCLOCK TIME (SEC) =          0

               CONVERGENCE CHECKS FOR EQUILIBRIUM ITERATION     1


 AVERAGE FORCE                       131.       TIME AVG. FORCE        70.9    
 LARGEST RESIDUAL FORCE              15.5       AT NODE       2686   DOF  2
 LARGEST INCREMENT OF DISP.         2.381E-02   AT NODE    1377857   DOF  2
 LARGEST CORRECTION TO DISP.        4.859E-04   AT NODE      12941   DOF  2
          FORCE     EQUILIBRIUM NOT ACHIEVED WITHIN TOLERANCE.

 AVERAGE MOMENT                     4.340E-16   TIME AVG. MOMENT       7.09    
                                                (FROM FORCE     FIELD)
 LARGEST RESIDUAL MOMENT           -8.671E-16   AT NODE   50000001   DOF  6
 LARGEST INCREMENT OF ROTATION      1.266E-03   AT NODE   50000001   DOF  6
 LARGEST CORRECTION TO ROTATION    -6.381E-06   AT NODE   50000001   DOF  6
          THERE IS ZERO MOMENT    EVERYWHERE

  NUMBER OF EQUATIONS =     16235     NUMBER OF RHS =    1
  NUMBER OF FLOATING PT. OPERATIONS =  9.71E+07

     CHECK POINT   START OF SOLVER    

     CHECK POINT  END OF SOLVER       

       ELAPSED USER TIME (SEC)      =  0.10000    
       ELAPSED SYSTEM TIME (SEC)    =   0.0000    
       ELAPSED TOTAL CPU TIME (SEC) =  0.10000    
       ELAPSED WALLCLOCK TIME (SEC) =          0

               CONVERGENCE CHECKS FOR EQUILIBRIUM ITERATION     2


 AVERAGE FORCE                       131.       TIME AVG. FORCE        70.9    
 LARGEST RESIDUAL FORCE             -2.10       AT NODE     103061   DOF  1
 LARGEST INCREMENT OF DISP.         2.381E-02   AT NODE    1377857   DOF  2
 LARGEST CORRECTION TO DISP.        3.217E-05   AT NODE      21140   DOF  2
          FORCE     EQUILIBRIUM NOT ACHIEVED WITHIN TOLERANCE.

 AVERAGE MOMENT                     4.527E-21   TIME AVG. MOMENT       7.09    
                                                (FROM FORCE     FIELD)
 LARGEST RESIDUAL MOMENT            9.055E-21   AT NODE   50000001   DOF  6
 LARGEST INCREMENT OF ROTATION      1.266E-03   AT NODE   50000001   DOF  6
 LARGEST CORRECTION TO ROTATION    -2.049E-07   AT NODE   50000001   DOF  6
          THERE IS ZERO MOMENT    EVERYWHERE

  NUMBER OF EQUATIONS =     16235     NUMBER OF RHS =    1
  NUMBER OF FLOATING PT. OPERATIONS =  9.71E+07

     CHECK POINT   START OF SOLVER    

     CHECK POINT  END OF SOLVER       

       ELAPSED USER TIME (SEC)      =  0.10000    
       ELAPSED SYSTEM TIME (SEC)    =   0.0000    
       ELAPSED TOTAL CPU TIME (SEC) =  0.10000    
       ELAPSED WALLCLOCK TIME (SEC) =          0

               CONVERGENCE CHECKS FOR EQUILIBRIUM ITERATION     3


 AVERAGE FORCE                       131.       TIME AVG. FORCE        70.9    
 LARGEST RESIDUAL FORCE            -1.316E-03   AT NODE     103061   DOF  1
 LARGEST INCREMENT OF DISP.         2.381E-02   AT NODE    1377857   DOF  2
 LARGEST CORRECTION TO DISP.       -1.142E-06   AT NODE     103061   DOF  1
          THE FORCE     EQUILIBRIUM EQUATIONS HAVE CONVERGED

 AVERAGE MOMENT                     3.971E-23   TIME AVG. MOMENT       7.09    
                                                (FROM FORCE     FIELD)
 LARGEST RESIDUAL MOMENT            7.942E-23   AT NODE   50000001   DOF  6
 LARGEST INCREMENT OF ROTATION      1.266E-03   AT NODE   50000001   DOF  6
 LARGEST CORRECTION TO ROTATION    -1.780E-09   AT NODE   50000001   DOF  6
          THERE IS ZERO MOMENT    EVERYWHERE
          TIME INCREMENT MAY NOW INCREASE TO    4.449E-02

 ITERATION SUMMARY FOR THE INCREMENT:   3 TOTAL ITERATIONS, OF WHICH
   0 ARE SEVERE DISCONTINUITY ITERATIONS AND  3 ARE EQUILIBRIUM ITERATIONS.

 TIME INCREMENT COMPLETED  2.966E-02,  FRACTION OF STEP COMPLETED  0.152    
 STEP TIME COMPLETED       0.152    ,  TOTAL TIME COMPLETED        0.152    


  INCREMENT     8 STARTS. ATTEMPT NUMBER  1, TIME INCREMENT  4.449E-02

  NUMBER OF EQUATIONS =     16235     NUMBER OF RHS =    1
  NUMBER OF FLOATING PT. OPERATIONS =  9.71E+07

     CHECK POINT   START OF SOLVER    

     CHECK POINT  END OF SOLVER       

       ELAPSED USER TIME (SEC)      =   0.0000    
       ELAPSED SYSTEM TIME (SEC)    =  0.10000    
       ELAPSED TOTAL CPU TIME (SEC) =  0.10000    
       ELAPSED WALLCLOCK TIME (SEC) =          0

               CONVERGENCE CHECKS FOR EQUILIBRIUM ITERATION     1


 AVERAGE FORCE                       163.       TIME AVG. FORCE        82.4    
 LARGEST RESIDUAL FORCE              72.7       AT NODE     393217   DOF  2
 LARGEST INCREMENT OF DISP.         3.570E-02   AT NODE    1377857   DOF  2
 LARGEST CORRECTION TO DISP.        9.965E-04   AT NODE      10898   DOF  2
          FORCE     EQUILIBRIUM NOT ACHIEVED WITHIN TOLERANCE.

 AVERAGE MOMENT                     3.175E-19   TIME AVG. MOMENT       8.26    
                                                (FROM FORCE     FIELD)
 LARGEST RESIDUAL MOMENT            6.349E-19   AT NODE   50000001   DOF  6
 LARGEST INCREMENT OF ROTATION      1.886E-03   AT NODE   50000001   DOF  6
 LARGEST CORRECTION TO ROTATION    -1.295E-05   AT NODE   50000001   DOF  6
          THERE IS ZERO MOMENT    EVERYWHERE

  NUMBER OF EQUATIONS =     16235     NUMBER OF RHS =    1
  NUMBER OF FLOATING PT. OPERATIONS =  9.71E+07

     CHECK POINT   START OF SOLVER    

     CHECK POINT  END OF SOLVER       

       ELAPSED USER TIME (SEC)      =  0.10000    
       ELAPSED SYSTEM TIME (SEC)    =   0.0000    
       ELAPSED TOTAL CPU TIME (SEC) =  0.10000    
       ELAPSED WALLCLOCK TIME (SEC) =          0

               CONVERGENCE CHECKS FOR EQUILIBRIUM ITERATION     2


 AVERAGE FORCE                       163.       TIME AVG. FORCE        82.4    
 LARGEST RESIDUAL FORCE              2.71       AT NODE     262769   DOF  2
 LARGEST INCREMENT OF DISP.         3.570E-02   AT NODE    1377857   DOF  2
 LARGEST CORRECTION TO DISP.       -7.930E-05   AT NODE       6784   DOF  1
          FORCE     EQUILIBRIUM NOT ACHIEVED WITHIN TOLERANCE.

 AVERAGE MOMENT                     9.387E-21   TIME AVG. MOMENT       8.26    
                                                (FROM FORCE     FIELD)
 LARGEST RESIDUAL MOMENT            1.877E-20   AT NODE   50000001   DOF  6
 LARGEST INCREMENT OF ROTATION      1.885E-03   AT NODE   50000001   DOF  6
 LARGEST CORRECTION TO ROTATION    -3.581E-07   AT NODE   50000001   DOF  6
          THERE IS ZERO MOMENT    EVERYWHERE

  NUMBER OF EQUATIONS =     16235     NUMBER OF RHS =    1
  NUMBER OF FLOATING PT. OPERATIONS =  9.71E+07

     CHECK POINT   START OF SOLVER    

     CHECK POINT  END OF SOLVER       

       ELAPSED USER TIME (SEC)      =  0.10000    
       ELAPSED SYSTEM TIME (SEC)    =   0.0000    
       ELAPSED TOTAL CPU TIME (SEC) =  0.10000    
       ELAPSED WALLCLOCK TIME (SEC) =          0

               CONVERGENCE CHECKS FOR EQUILIBRIUM ITERATION     3


 AVERAGE FORCE                       163.       TIME AVG. FORCE        82.4    
 LARGEST RESIDUAL FORCE            -5.463E-02   AT NODE       6781   DOF  1
 LARGEST INCREMENT OF DISP.         3.570E-02   AT NODE    1377857   DOF  2
 LARGEST CORRECTION TO DISP.       -5.194E-06   AT NODE       6782   DOF  1
          THE FORCE     EQUILIBRIUM EQUATIONS HAVE CONVERGED

 AVERAGE MOMENT                     2.349E-22   TIME AVG. MOMENT       8.26    
                                                (FROM FORCE     FIELD)
 LARGEST RESIDUAL MOMENT            4.698E-22   AT NODE   50000001   DOF  6
 LARGEST INCREMENT OF ROTATION      1.885E-03   AT NODE   50000001   DOF  6
 LARGEST CORRECTION TO ROTATION    -1.117E-08   AT NODE   50000001   DOF  6
          THERE IS ZERO MOMENT    EVERYWHERE
          TIME INCREMENT MAY NOW INCREASE TO    6.674E-02

 ITERATION SUMMARY FOR THE INCREMENT:   3 TOTAL ITERATIONS, OF WHICH
   0 ARE SEVERE DISCONTINUITY ITERATIONS AND  3 ARE EQUILIBRIUM ITERATIONS.

 TIME INCREMENT COMPLETED  4.449E-02,  FRACTION OF STEP COMPLETED  0.197    
 STEP TIME COMPLETED       0.197    ,  TOTAL TIME COMPLETED        0.197    


  INCREMENT     9 STARTS. ATTEMPT NUMBER  1, TIME INCREMENT  6.674E-02

  NUMBER OF EQUATIONS =     16235     NUMBER OF RHS =    1
  NUMBER OF FLOATING PT. OPERATIONS =  9.71E+07

     CHECK POINT   START OF SOLVER    

     CHECK POINT  END OF SOLVER       

       ELAPSED USER TIME (SEC)      =   0.0000    
       ELAPSED SYSTEM TIME (SEC)    =   0.0000    
       ELAPSED TOTAL CPU TIME (SEC) =   0.0000    
       ELAPSED WALLCLOCK TIME (SEC) =          0

               CONVERGENCE CHECKS FOR EQUILIBRIUM ITERATION     1


 AVERAGE FORCE                       201.       TIME AVG. FORCE        95.5    
 LARGEST RESIDUAL FORCE             -336.       AT NODE     589889   DOF  2
 LARGEST INCREMENT OF DISP.         5.353E-02   AT NODE    1377857   DOF  2
 LARGEST CORRECTION TO DISP.        3.779E-03   AT NODE        641   DOF  2
          FORCE     EQUILIBRIUM NOT ACHIEVED WITHIN TOLERANCE.

 AVERAGE MOMENT                     8.675E-16   TIME AVG. MOMENT       9.60    
                                                (FROM FORCE     FIELD)
 LARGEST RESIDUAL MOMENT           -1.733E-15   AT NODE   50000001   DOF  6
 LARGEST INCREMENT OF ROTATION      2.801E-03   AT NODE   50000001   DOF  6
 LARGEST CORRECTION TO ROTATION    -2.732E-05   AT NODE   50000001   DOF  6
          THERE IS ZERO MOMENT    EVERYWHERE

  NUMBER OF EQUATIONS =     16235     NUMBER OF RHS =    1
  NUMBER OF FLOATING PT. OPERATIONS =  9.71E+07

     CHECK POINT   START OF SOLVER    

     CHECK POINT  END OF SOLVER       

       ELAPSED USER TIME (SEC)      =  0.10000    
       ELAPSED SYSTEM TIME (SEC)    =   0.0000    
       ELAPSED TOTAL CPU TIME (SEC) =  0.10000    
       ELAPSED WALLCLOCK TIME (SEC) =          0
 

 ***WARNING: THE SYSTEM MATRIX HAS 1 NEGATIVE EIGENVALUES.

     NEGATIVE EIGENVALUES MEAN THAT THE SYSTEM MATRIX IS NOT 
     POSITIVE DEFINITE:
     FOR EXAMPLE, A BIFURCATION (BUCKLING) LOAD MAY HAVE BEEN EXCEEDED.

 ***WARNING: THE STRAIN INCREMENT HAS EXCEEDED FIFTY TIMES THE STRAIN TO CAUSE 
             FIRST YIELD AT 7 POINTS

               CONVERGENCE CHECKS FOR EQUILIBRIUM ITERATION     2


 AVERAGE FORCE                       197.       TIME AVG. FORCE        95.2    
 LARGEST RESIDUAL FORCE            -1.244E+03   AT NODE        641   DOF  2
 LARGEST INCREMENT OF DISP.         6.036E-02   AT NODE        641   DOF  2
 LARGEST CORRECTION TO DISP.        5.270E-02   AT NODE        641   DOF  2
          FORCE     EQUILIBRIUM NOT ACHIEVED WITHIN TOLERANCE.

 AVERAGE MOMENT                     7.150E-19   TIME AVG. MOMENT       9.60    
                                                (FROM FORCE     FIELD)
 LARGEST RESIDUAL MOMENT            1.430E-18   AT NODE   50000001   DOF  6
 LARGEST INCREMENT OF ROTATION      2.769E-03   AT NODE   50000001   DOF  6
 LARGEST CORRECTION TO ROTATION    -3.157E-05   AT NODE   50000001   DOF  6
          THERE IS ZERO MOMENT    EVERYWHERE

  NUMBER OF EQUATIONS =     16235     NUMBER OF RHS =    1
  NUMBER OF FLOATING PT. OPERATIONS =  9.71E+07

     CHECK POINT   START OF SOLVER    

     CHECK POINT  END OF SOLVER       

       ELAPSED USER TIME (SEC)      =   0.0000    
       ELAPSED SYSTEM TIME (SEC)    =   0.0000    
       ELAPSED TOTAL CPU TIME (SEC) =   0.0000    
       ELAPSED WALLCLOCK TIME (SEC) =          0

 ***WARNING: THE STRAIN INCREMENT HAS EXCEEDED FIFTY TIMES THE STRAIN TO CAUSE 
             FIRST YIELD AT 41 POINTS

 ***WARNING: THE STRAIN INCREMENT IS SO LARGE THAT THE PROGRAM WILL NOT ATTEMPT 
             THE PLASTICITY CALCULATION AT 2 POINTS
 

 ***NOTE: MATERIAL CALCULATIONS FAILED TO CONVERGE OR WERE NOT ATTEMPTED AT ONE 
          OR MORE POINTS. CONVERGENCE IS JUDGED UNLIKELY.


  INCREMENT     9 STARTS. ATTEMPT NUMBER  2, TIME INCREMENT  1.669E-02

  NUMBER OF EQUATIONS =     16235     NUMBER OF RHS =    1
  NUMBER OF FLOATING PT. OPERATIONS =  9.71E+07

     CHECK POINT   START OF SOLVER    

     CHECK POINT  END OF SOLVER       

       ELAPSED USER TIME (SEC)      =   0.0000    
       ELAPSED SYSTEM TIME (SEC)    =   0.0000    
       ELAPSED TOTAL CPU TIME (SEC) =   0.0000    
       ELAPSED WALLCLOCK TIME (SEC) =          0

               CONVERGENCE CHECKS FOR EQUILIBRIUM ITERATION     1


 AVERAGE FORCE                       174.       TIME AVG. FORCE        92.6    
 LARGEST RESIDUAL FORCE             -32.8       AT NODE     393281   DOF  2
 LARGEST INCREMENT OF DISP.         1.338E-02   AT NODE    1377857   DOF  2
 LARGEST CORRECTION TO DISP.       -4.433E-04   AT NODE     393217   DOF  2
          FORCE     EQUILIBRIUM NOT ACHIEVED WITHIN TOLERANCE.

 AVERAGE MOMENT                     8.955E-20   TIME AVG. MOMENT       9.60    
                                                (FROM FORCE     FIELD)
 LARGEST RESIDUAL MOMENT            1.791E-19   AT NODE   50000001   DOF  6
 LARGEST INCREMENT OF ROTATION      7.040E-04   AT NODE   50000001   DOF  6
 LARGEST CORRECTION TO ROTATION    -2.958E-06   AT NODE   50000001   DOF  6
          THERE IS ZERO MOMENT    EVERYWHERE

  NUMBER OF EQUATIONS =     16235     NUMBER OF RHS =    1
  NUMBER OF FLOATING PT. OPERATIONS =  9.71E+07

     CHECK POINT   START OF SOLVER    

     CHECK POINT  END OF SOLVER       

       ELAPSED USER TIME (SEC)      =   0.0000    
       ELAPSED SYSTEM TIME (SEC)    =   0.0000    
       ELAPSED TOTAL CPU TIME (SEC) =   0.0000    
       ELAPSED WALLCLOCK TIME (SEC) =          0

               CONVERGENCE CHECKS FOR EQUILIBRIUM ITERATION     2


 AVERAGE FORCE                       174.       TIME AVG. FORCE        92.6    
 LARGEST RESIDUAL FORCE             -3.08       AT NODE     262753   DOF  2
 LARGEST INCREMENT OF DISP.         1.338E-02   AT NODE    1377857   DOF  2
 LARGEST CORRECTION TO DISP.       -1.442E-05   AT NODE     393249   DOF  2
          FORCE     EQUILIBRIUM NOT ACHIEVED WITHIN TOLERANCE.

 AVERAGE MOMENT                     8.682E-16   TIME AVG. MOMENT       9.60    
                                                (FROM FORCE     FIELD)
 LARGEST RESIDUAL MOMENT           -1.735E-15   AT NODE   50000001   DOF  6
 LARGEST INCREMENT OF ROTATION      7.040E-04   AT NODE   50000001   DOF  6
 LARGEST CORRECTION TO ROTATION    -6.165E-08   AT NODE   50000001   DOF  6
          THERE IS ZERO MOMENT    EVERYWHERE

  NUMBER OF EQUATIONS =     16235     NUMBER OF RHS =    1
  NUMBER OF FLOATING PT. OPERATIONS =  9.71E+07

     CHECK POINT   START OF SOLVER    

     CHECK POINT  END OF SOLVER       

       ELAPSED USER TIME (SEC)      =   0.0000    
       ELAPSED SYSTEM TIME (SEC)    =   0.0000    
       ELAPSED TOTAL CPU TIME (SEC) =   0.0000    
       ELAPSED WALLCLOCK TIME (SEC) =          0

               CONVERGENCE CHECKS FOR EQUILIBRIUM ITERATION     3


 AVERAGE FORCE                       174.       TIME AVG. FORCE        92.5    
 LARGEST RESIDUAL FORCE            -2.361E-03   AT NODE        636   DOF  2
 LARGEST INCREMENT OF DISP.         1.338E-02   AT NODE    1377857   DOF  2
 LARGEST CORRECTION TO DISP.       -1.209E-06   AT NODE     262769   DOF  1
          THE FORCE     EQUILIBRIUM EQUATIONS HAVE CONVERGED

 AVERAGE MOMENT                     8.682E-16   TIME AVG. MOMENT       9.60    
                                                (FROM FORCE     FIELD)
 LARGEST RESIDUAL MOMENT            1.735E-15   AT NODE   50000001   DOF  6
 LARGEST INCREMENT OF ROTATION      7.040E-04   AT NODE   50000001   DOF  6
 LARGEST CORRECTION TO ROTATION    -8.997E-09   AT NODE   50000001   DOF  6
          THERE IS ZERO MOMENT    EVERYWHERE
          TIME INCREMENT MAY NOW INCREASE TO    2.503E-02

 ITERATION SUMMARY FOR THE INCREMENT:   3 TOTAL ITERATIONS, OF WHICH
   0 ARE SEVERE DISCONTINUITY ITERATIONS AND  3 ARE EQUILIBRIUM ITERATIONS.

 TIME INCREMENT COMPLETED  1.669E-02,  FRACTION OF STEP COMPLETED  0.214    
 STEP TIME COMPLETED       0.214    ,  TOTAL TIME COMPLETED        0.214    


  INCREMENT    10 STARTS. ATTEMPT NUMBER  1, TIME INCREMENT  2.503E-02

  NUMBER OF EQUATIONS =     16235     NUMBER OF RHS =    1
  NUMBER OF FLOATING PT. OPERATIONS =  9.71E+07

     CHECK POINT   START OF SOLVER    

     CHECK POINT  END OF SOLVER       

       ELAPSED USER TIME (SEC)      =   0.0000    
       ELAPSED SYSTEM TIME (SEC)    =   0.0000    
       ELAPSED TOTAL CPU TIME (SEC) =   0.0000    
       ELAPSED WALLCLOCK TIME (SEC) =          0

               CONVERGENCE CHECKS FOR EQUILIBRIUM ITERATION     1


 AVERAGE FORCE                       188.       TIME AVG. FORCE        102.    
 LARGEST RESIDUAL FORCE             -45.7       AT NODE     393313   DOF  2
 LARGEST INCREMENT OF DISP.         2.007E-02   AT NODE    1377857   DOF  2
 LARGEST CORRECTION TO DISP.       -4.312E-04   AT NODE     524289   DOF  2
          FORCE     EQUILIBRIUM NOT ACHIEVED WITHIN TOLERANCE.

 AVERAGE MOMENT                     8.683E-16   TIME AVG. MOMENT       10.8    
                                                (FROM FORCE     FIELD)
 LARGEST RESIDUAL MOMENT            1.735E-15   AT NODE   50000001   DOF  6
 LARGEST INCREMENT OF ROTATION      1.052E-03   AT NODE   50000001   DOF  6
 LARGEST CORRECTION TO ROTATION    -3.786E-06   AT NODE   50000001   DOF  6
          THERE IS ZERO MOMENT    EVERYWHERE

  NUMBER OF EQUATIONS =     16235     NUMBER OF RHS =    1
  NUMBER OF FLOATING PT. OPERATIONS =  9.71E+07

     CHECK POINT   START OF SOLVER    

     CHECK POINT  END OF SOLVER       

       ELAPSED USER TIME (SEC)      =   0.0000    
       ELAPSED SYSTEM TIME (SEC)    =   0.0000    
       ELAPSED TOTAL CPU TIME (SEC) =   0.0000    
       ELAPSED WALLCLOCK TIME (SEC) =          0

               CONVERGENCE CHECKS FOR EQUILIBRIUM ITERATION     2


 AVERAGE FORCE                       188.       TIME AVG. FORCE        102.    
 LARGEST RESIDUAL FORCE              1.65       AT NODE     393249   DOF  2
 LARGEST INCREMENT OF DISP.         2.007E-02   AT NODE    1377857   DOF  2
 LARGEST CORRECTION TO DISP.       -5.429E-05   AT NODE   70000097   DOF  1
          FORCE     EQUILIBRIUM NOT ACHIEVED WITHIN TOLERANCE.

 AVERAGE MOMENT                     8.682E-16   TIME AVG. MOMENT       10.8    
                                                (FROM FORCE     FIELD)
 LARGEST RESIDUAL MOMENT           -1.735E-15   AT NODE   50000001   DOF  6
 LARGEST INCREMENT OF ROTATION      1.052E-03   AT NODE   50000001   DOF  6
 LARGEST CORRECTION TO ROTATION     1.999E-07   AT NODE   50000001   DOF  6
          THERE IS ZERO MOMENT    EVERYWHERE

  NUMBER OF EQUATIONS =     16235     NUMBER OF RHS =    1
  NUMBER OF FLOATING PT. OPERATIONS =  9.71E+07

     CHECK POINT   START OF SOLVER    

     CHECK POINT  END OF SOLVER       

       ELAPSED USER TIME (SEC)      =  0.10000    
       ELAPSED SYSTEM TIME (SEC)    =  0.10000    
       ELAPSED TOTAL CPU TIME (SEC) =  0.20000    
       ELAPSED WALLCLOCK TIME (SEC) =          0

               CONVERGENCE CHECKS FOR EQUILIBRIUM ITERATION     3


 AVERAGE FORCE                       188.       TIME AVG. FORCE        102.    
 LARGEST RESIDUAL FORCE             3.234E-03   AT NODE        641   DOF  2
 LARGEST INCREMENT OF DISP.         2.007E-02   AT NODE    1377857   DOF  2
 LARGEST CORRECTION TO DISP.        2.905E-06   AT NODE       2689   DOF  1
          THE FORCE     EQUILIBRIUM EQUATIONS HAVE CONVERGED

 AVERAGE MOMENT                     5.041E-25   TIME AVG. MOMENT       10.8    
                                                (FROM FORCE     FIELD)
 LARGEST RESIDUAL MOMENT            1.008E-24   AT NODE   50000001   DOF  6
 LARGEST INCREMENT OF ROTATION      1.052E-03   AT NODE   50000001   DOF  6
 LARGEST CORRECTION TO ROTATION     2.995E-09   AT NODE   50000001   DOF  6
          THERE IS ZERO MOMENT    EVERYWHERE
          TIME INCREMENT MAY NOW INCREASE TO    3.754E-02

 ITERATION SUMMARY FOR THE INCREMENT:   3 TOTAL ITERATIONS, OF WHICH
   0 ARE SEVERE DISCONTINUITY ITERATIONS AND  3 ARE EQUILIBRIUM ITERATIONS.

 TIME INCREMENT COMPLETED  2.503E-02,  FRACTION OF STEP COMPLETED  0.239    
 STEP TIME COMPLETED       0.239    ,  TOTAL TIME COMPLETED        0.239    


  INCREMENT    11 STARTS. ATTEMPT NUMBER  1, TIME INCREMENT  3.754E-02

  NUMBER OF EQUATIONS =     16235     NUMBER OF RHS =    1
  NUMBER OF FLOATING PT. OPERATIONS =  9.71E+07

     CHECK POINT   START OF SOLVER    

     CHECK POINT  END OF SOLVER       

       ELAPSED USER TIME (SEC)      =   0.0000    
       ELAPSED SYSTEM TIME (SEC)    =   0.0000    
       ELAPSED TOTAL CPU TIME (SEC) =   0.0000    
       ELAPSED WALLCLOCK TIME (SEC) =          0

               CONVERGENCE CHECKS FOR EQUILIBRIUM ITERATION     1


 AVERAGE FORCE                       206.       TIME AVG. FORCE        112.    
 LARGEST RESIDUAL FORCE              178.       AT NODE        642   DOF  2
 LARGEST INCREMENT OF DISP.         3.010E-02   AT NODE    1377857   DOF  2
 LARGEST CORRECTION TO DISP.        3.730E-03   AT NODE        641   DOF  2
          FORCE     EQUILIBRIUM NOT ACHIEVED WITHIN TOLERANCE.

 AVERAGE MOMENT                     8.686E-16   TIME AVG. MOMENT       11.9    
                                                (FROM FORCE     FIELD)
 LARGEST RESIDUAL MOMENT            1.735E-15   AT NODE   50000001   DOF  6
 LARGEST INCREMENT OF ROTATION      1.566E-03   AT NODE   50000001   DOF  6
 LARGEST CORRECTION TO ROTATION    -1.220E-05   AT NODE   50000001   DOF  6
          THERE IS ZERO MOMENT    EVERYWHERE

  NUMBER OF EQUATIONS =     16235     NUMBER OF RHS =    1
  NUMBER OF FLOATING PT. OPERATIONS =  9.71E+07

     CHECK POINT   START OF SOLVER    

     CHECK POINT  END OF SOLVER       

       ELAPSED USER TIME (SEC)      =   0.0000    
       ELAPSED SYSTEM TIME (SEC)    =   0.0000    
       ELAPSED TOTAL CPU TIME (SEC) =   0.0000    
       ELAPSED WALLCLOCK TIME (SEC) =          0

 ***WARNING: THE STRAIN INCREMENT HAS EXCEEDED FIFTY TIMES THE STRAIN TO CAUSE 
             FIRST YIELD AT 2 POINTS

               CONVERGENCE CHECKS FOR EQUILIBRIUM ITERATION     2


 AVERAGE FORCE                       206.       TIME AVG. FORCE        112.    
 LARGEST RESIDUAL FORCE             -290.       AT NODE      10886   DOF  1
 LARGEST INCREMENT OF DISP.         3.010E-02   AT NODE    1377857   DOF  2
 LARGEST CORRECTION TO DISP.       -1.068E-02   AT NODE        641   DOF  2
          FORCE     EQUILIBRIUM NOT ACHIEVED WITHIN TOLERANCE.

 AVERAGE MOMENT                     1.736E-15   TIME AVG. MOMENT       11.9    
                                                (FROM FORCE     FIELD)
 LARGEST RESIDUAL MOMENT           -3.470E-15   AT NODE   50000001   DOF  6
 LARGEST INCREMENT OF ROTATION      1.568E-03   AT NODE   50000001   DOF  6
 LARGEST CORRECTION TO ROTATION     2.051E-06   AT NODE   50000001   DOF  6
          THERE IS ZERO MOMENT    EVERYWHERE

  NUMBER OF EQUATIONS =     16235     NUMBER OF RHS =    1
  NUMBER OF FLOATING PT. OPERATIONS =  9.71E+07

     CHECK POINT   START OF SOLVER    

     CHECK POINT  END OF SOLVER       

       ELAPSED USER TIME (SEC)      =   0.0000    
       ELAPSED SYSTEM TIME (SEC)    =   0.0000    
       ELAPSED TOTAL CPU TIME (SEC) =   0.0000    
       ELAPSED WALLCLOCK TIME (SEC) =          0

 ***WARNING: THE STRAIN INCREMENT HAS EXCEEDED FIFTY TIMES THE STRAIN TO CAUSE 
             FIRST YIELD AT 14 POINTS

               CONVERGENCE CHECKS FOR EQUILIBRIUM ITERATION     3


 AVERAGE FORCE                       206.       TIME AVG. FORCE        112.    
 LARGEST RESIDUAL FORCE             -381.       AT NODE      12934   DOF  1
 LARGEST INCREMENT OF DISP.         3.010E-02   AT NODE    1377857   DOF  2
 LARGEST CORRECTION TO DISP.       -1.568E-02   AT NODE       2691   DOF  2
          FORCE     EQUILIBRIUM NOT ACHIEVED WITHIN TOLERANCE.

 AVERAGE MOMENT                     1.736E-15   TIME AVG. MOMENT       11.9    
                                                (FROM FORCE     FIELD)
 LARGEST RESIDUAL MOMENT            3.469E-15   AT NODE   50000001   DOF  6
 LARGEST INCREMENT OF ROTATION      1.577E-03   AT NODE   50000001   DOF  6
 LARGEST CORRECTION TO ROTATION     8.789E-06   AT NODE   50000001   DOF  6
          THERE IS ZERO MOMENT    EVERYWHERE

  NUMBER OF EQUATIONS =     16235     NUMBER OF RHS =    1
  NUMBER OF FLOATING PT. OPERATIONS =  9.71E+07

     CHECK POINT   START OF SOLVER    

     CHECK POINT  END OF SOLVER       

       ELAPSED USER TIME (SEC)      =   0.0000    
       ELAPSED SYSTEM TIME (SEC)    =   0.0000    
       ELAPSED TOTAL CPU TIME (SEC) =   0.0000    
       ELAPSED WALLCLOCK TIME (SEC) =          0

 ***WARNING: THE STRAIN INCREMENT HAS EXCEEDED FIFTY TIMES THE STRAIN TO CAUSE 
             FIRST YIELD AT 72 POINTS

               CONVERGENCE CHECKS FOR EQUILIBRIUM ITERATION     4


 AVERAGE FORCE                       206.       TIME AVG. FORCE        112.    
 LARGEST RESIDUAL FORCE             6.044E+03   AT NODE        638   DOF  2
 LARGEST INCREMENT OF DISP.         5.730E-02   AT NODE        643   DOF  2
 LARGEST CORRECTION TO DISP.        6.308E-02   AT NODE       2691   DOF  2
          FORCE     EQUILIBRIUM NOT ACHIEVED WITHIN TOLERANCE.

 AVERAGE MOMENT                     1.218E-19   TIME AVG. MOMENT       11.9    
                                                (FROM FORCE     FIELD)
 LARGEST RESIDUAL MOMENT            2.436E-19   AT NODE   50000001   DOF  6
 LARGEST INCREMENT OF ROTATION      1.572E-03   AT NODE   50000001   DOF  6
 LARGEST CORRECTION TO ROTATION    -5.254E-06   AT NODE   50000001   DOF  6
          THERE IS ZERO MOMENT    EVERYWHERE
 

 ***NOTE: THE SOLUTION APPEARS TO BE DIVERGING. CONVERGENCE IS JUDGED UNLIKELY.


  INCREMENT    11 STARTS. ATTEMPT NUMBER  2, TIME INCREMENT  9.386E-03

  NUMBER OF EQUATIONS =     16235     NUMBER OF RHS =    1
  NUMBER OF FLOATING PT. OPERATIONS =  9.71E+07

     CHECK POINT   START OF SOLVER    

     CHECK POINT  END OF SOLVER       

       ELAPSED USER TIME (SEC)      =  0.10000    
       ELAPSED SYSTEM TIME (SEC)    =   0.0000    
       ELAPSED TOTAL CPU TIME (SEC) =  0.10000    
       ELAPSED WALLCLOCK TIME (SEC) =          0

               CONVERGENCE CHECKS FOR EQUILIBRIUM ITERATION     1


 AVERAGE FORCE                       193.       TIME AVG. FORCE        110.    
 LARGEST RESIDUAL FORCE              82.3       AT NODE        642   DOF  2
 LARGEST INCREMENT OF DISP.         7.525E-03   AT NODE    1377857   DOF  2
 LARGEST CORRECTION TO DISP.        3.487E-04   AT NODE        641   DOF  2
          FORCE     EQUILIBRIUM NOT ACHIEVED WITHIN TOLERANCE.

 AVERAGE MOMENT                     3.222E-20   TIME AVG. MOMENT       11.9    
                                                (FROM FORCE     FIELD)
 LARGEST RESIDUAL MOMENT            6.444E-20   AT NODE   50000001   DOF  6
 LARGEST INCREMENT OF ROTATION      3.936E-04   AT NODE   50000001   DOF  6
 LARGEST CORRECTION TO ROTATION    -1.014E-06   AT NODE   50000001   DOF  6
          THERE IS ZERO MOMENT    EVERYWHERE

  NUMBER OF EQUATIONS =     16235     NUMBER OF RHS =    1
  NUMBER OF FLOATING PT. OPERATIONS =  9.71E+07

     CHECK POINT   START OF SOLVER    

     CHECK POINT  END OF SOLVER       

       ELAPSED USER TIME (SEC)      =  0.10000    
       ELAPSED SYSTEM TIME (SEC)    =   0.0000    
       ELAPSED TOTAL CPU TIME (SEC) =  0.10000    
       ELAPSED WALLCLOCK TIME (SEC) =          0

               CONVERGENCE CHECKS FOR EQUILIBRIUM ITERATION     2


 AVERAGE FORCE                       193.       TIME AVG. FORCE        110.    
 LARGEST RESIDUAL FORCE             -1.94       AT NODE       2691   DOF  1
 LARGEST INCREMENT OF DISP.         7.525E-03   AT NODE    1377857   DOF  2
 LARGEST CORRECTION TO DISP.       -1.089E-04   AT NODE       2689   DOF  1
          FORCE     EQUILIBRIUM NOT ACHIEVED WITHIN TOLERANCE.

 AVERAGE MOMENT                     1.194E-21   TIME AVG. MOMENT       11.9    
                                                (FROM FORCE     FIELD)
 LARGEST RESIDUAL MOMENT           -2.388E-21   AT NODE   50000001   DOF  6
 LARGEST INCREMENT OF ROTATION      3.937E-04   AT NODE   50000001   DOF  6
 LARGEST CORRECTION TO ROTATION     6.205E-08   AT NODE   50000001   DOF  6
          THERE IS ZERO MOMENT    EVERYWHERE

  NUMBER OF EQUATIONS =     16235     NUMBER OF RHS =    1
  NUMBER OF FLOATING PT. OPERATIONS =  9.71E+07

     CHECK POINT   START OF SOLVER    

     CHECK POINT  END OF SOLVER       

       ELAPSED USER TIME (SEC)      =   0.0000    
       ELAPSED SYSTEM TIME (SEC)    =   0.0000    
       ELAPSED TOTAL CPU TIME (SEC) =   0.0000    
       ELAPSED WALLCLOCK TIME (SEC) =          0

               CONVERGENCE CHECKS FOR EQUILIBRIUM ITERATION     3


 AVERAGE FORCE                       193.       TIME AVG. FORCE        110.    
 LARGEST RESIDUAL FORCE            -0.211       AT NODE       4733   DOF  2
 LARGEST INCREMENT OF DISP.         7.525E-03   AT NODE    1377857   DOF  2
 LARGEST CORRECTION TO DISP.        1.529E-05   AT NODE       2691   DOF  2
          THE FORCE     EQUILIBRIUM EQUATIONS HAVE CONVERGED

 AVERAGE MOMENT                     1.351E-22   TIME AVG. MOMENT       11.9    
                                                (FROM FORCE     FIELD)
 LARGEST RESIDUAL MOMENT           -2.703E-22   AT NODE   50000001   DOF  6
 LARGEST INCREMENT OF ROTATION      3.937E-04   AT NODE   50000001   DOF  6
 LARGEST CORRECTION TO ROTATION     6.855E-09   AT NODE   50000001   DOF  6
          THERE IS ZERO MOMENT    EVERYWHERE
          TIME INCREMENT MAY NOW INCREASE TO    1.408E-02

 ITERATION SUMMARY FOR THE INCREMENT:   3 TOTAL ITERATIONS, OF WHICH
   0 ARE SEVERE DISCONTINUITY ITERATIONS AND  3 ARE EQUILIBRIUM ITERATIONS.

 TIME INCREMENT COMPLETED  9.386E-03,  FRACTION OF STEP COMPLETED  0.248    
 STEP TIME COMPLETED       0.248    ,  TOTAL TIME COMPLETED        0.248    


  INCREMENT    12 STARTS. ATTEMPT NUMBER  1, TIME INCREMENT  1.408E-02

  NUMBER OF EQUATIONS =     16235     NUMBER OF RHS =    1
  NUMBER OF FLOATING PT. OPERATIONS =  9.71E+07

     CHECK POINT   START OF SOLVER    

     CHECK POINT  END OF SOLVER       

       ELAPSED USER TIME (SEC)      =  0.10000    
       ELAPSED SYSTEM TIME (SEC)    =   0.0000    
       ELAPSED TOTAL CPU TIME (SEC) =  0.10000    
       ELAPSED WALLCLOCK TIME (SEC) =          0

               CONVERGENCE CHECKS FOR EQUILIBRIUM ITERATION     1


 AVERAGE FORCE                       200.       TIME AVG. FORCE        118.    
 LARGEST RESIDUAL FORCE              17.5       AT NODE       4740   DOF  2
 LARGEST INCREMENT OF DISP.         1.129E-02   AT NODE    1377857   DOF  2
 LARGEST CORRECTION TO DISP.        3.242E-04   AT NODE        641   DOF  2
          FORCE     EQUILIBRIUM NOT ACHIEVED WITHIN TOLERANCE.

 AVERAGE MOMENT                     6.142E-20   TIME AVG. MOMENT       12.9    
                                                (FROM FORCE     FIELD)
 LARGEST RESIDUAL MOMENT            1.228E-19   AT NODE   50000001   DOF  6
 LARGEST INCREMENT OF ROTATION      5.880E-04   AT NODE   50000001   DOF  6
 LARGEST CORRECTION TO ROTATION    -2.573E-06   AT NODE   50000001   DOF  6
          THERE IS ZERO MOMENT    EVERYWHERE

  NUMBER OF EQUATIONS =     16235     NUMBER OF RHS =    1
  NUMBER OF FLOATING PT. OPERATIONS =  9.71E+07

     CHECK POINT   START OF SOLVER    

     CHECK POINT  END OF SOLVER       

       ELAPSED USER TIME (SEC)      =   0.0000    
       ELAPSED SYSTEM TIME (SEC)    =   0.0000    
       ELAPSED TOTAL CPU TIME (SEC) =   0.0000    
       ELAPSED WALLCLOCK TIME (SEC) =          0

               CONVERGENCE CHECKS FOR EQUILIBRIUM ITERATION     2


 AVERAGE FORCE                       200.       TIME AVG. FORCE        118.    
 LARGEST RESIDUAL FORCE            -0.582       AT NODE       2690   DOF  2
 LARGEST INCREMENT OF DISP.         1.129E-02   AT NODE    1377857   DOF  2
 LARGEST CORRECTION TO DISP.        3.589E-05   AT NODE        642   DOF  2
          THE FORCE     EQUILIBRIUM EQUATIONS HAVE CONVERGED

 AVERAGE MOMENT                     1.476E-21   TIME AVG. MOMENT       12.9    
                                                (FROM FORCE     FIELD)
 LARGEST RESIDUAL MOMENT            2.953E-21   AT NODE   50000001   DOF  6
 LARGEST INCREMENT OF ROTATION      5.879E-04   AT NODE   50000001   DOF  6
 LARGEST CORRECTION TO ROTATION    -6.811E-08   AT NODE   50000001   DOF  6
          THERE IS ZERO MOMENT    EVERYWHERE
          TIME INCREMENT MAY NOW INCREASE TO    2.112E-02

 ITERATION SUMMARY FOR THE INCREMENT:   2 TOTAL ITERATIONS, OF WHICH
   0 ARE SEVERE DISCONTINUITY ITERATIONS AND  2 ARE EQUILIBRIUM ITERATIONS.

 TIME INCREMENT COMPLETED  1.408E-02,  FRACTION OF STEP COMPLETED  0.262    
 STEP TIME COMPLETED       0.262    ,  TOTAL TIME COMPLETED        0.262    


  INCREMENT    13 STARTS. ATTEMPT NUMBER  1, TIME INCREMENT  2.112E-02

  NUMBER OF EQUATIONS =     16235     NUMBER OF RHS =    1
  NUMBER OF FLOATING PT. OPERATIONS =  9.71E+07

     CHECK POINT   START OF SOLVER    

     CHECK POINT  END OF SOLVER       

       ELAPSED USER TIME (SEC)      =   0.0000    
       ELAPSED SYSTEM TIME (SEC)    =   0.0000    
       ELAPSED TOTAL CPU TIME (SEC) =   0.0000    
       ELAPSED WALLCLOCK TIME (SEC) =          0

               CONVERGENCE CHECKS FOR EQUILIBRIUM ITERATION     1


 AVERAGE FORCE                       208.       TIME AVG. FORCE        125.    
 LARGEST RESIDUAL FORCE             -30.1       AT NODE     393377   DOF  2
 LARGEST INCREMENT OF DISP.         1.693E-02   AT NODE    1377857   DOF  2
 LARGEST CORRECTION TO DISP.        7.862E-04   AT NODE        641   DOF  2
          FORCE     EQUILIBRIUM NOT ACHIEVED WITHIN TOLERANCE.

 AVERAGE MOMENT                     9.312E-20   TIME AVG. MOMENT       13.7    
                                                (FROM FORCE     FIELD)
 LARGEST RESIDUAL MOMENT            1.862E-19   AT NODE   50000001   DOF  6
 LARGEST INCREMENT OF ROTATION      8.789E-04   AT NODE   50000001   DOF  6
 LARGEST CORRECTION TO ROTATION    -2.925E-06   AT NODE   50000001   DOF  6
          THERE IS ZERO MOMENT    EVERYWHERE

  NUMBER OF EQUATIONS =     16235     NUMBER OF RHS =    1
  NUMBER OF FLOATING PT. OPERATIONS =  9.71E+07

     CHECK POINT   START OF SOLVER    

     CHECK POINT  END OF SOLVER       

       ELAPSED USER TIME (SEC)      =   0.0000    
       ELAPSED SYSTEM TIME (SEC)    =   0.0000    
       ELAPSED TOTAL CPU TIME (SEC) =   0.0000    
       ELAPSED WALLCLOCK TIME (SEC) =          0

               CONVERGENCE CHECKS FOR EQUILIBRIUM ITERATION     2


 AVERAGE FORCE                       208.       TIME AVG. FORCE        125.    
 LARGEST RESIDUAL FORCE              5.85       AT NODE        640   DOF  2
 LARGEST INCREMENT OF DISP.         1.693E-02   AT NODE    1377857   DOF  2
 LARGEST CORRECTION TO DISP.        6.892E-04   AT NODE        641   DOF  2
          FORCE     EQUILIBRIUM NOT ACHIEVED WITHIN TOLERANCE.

 AVERAGE MOMENT                     8.682E-16   TIME AVG. MOMENT       13.7    
                                                (FROM FORCE     FIELD)
 LARGEST RESIDUAL MOMENT            1.735E-15   AT NODE   50000001   DOF  6
 LARGEST INCREMENT OF ROTATION      8.790E-04   AT NODE   50000001   DOF  6
 LARGEST CORRECTION TO ROTATION     1.016E-07   AT NODE   50000001   DOF  6
          THERE IS ZERO MOMENT    EVERYWHERE

  NUMBER OF EQUATIONS =     16235     NUMBER OF RHS =    1
  NUMBER OF FLOATING PT. OPERATIONS =  9.71E+07

     CHECK POINT   START OF SOLVER    

     CHECK POINT  END OF SOLVER       

       ELAPSED USER TIME (SEC)      =   0.0000    
       ELAPSED SYSTEM TIME (SEC)    =   0.0000    
       ELAPSED TOTAL CPU TIME (SEC) =   0.0000    
       ELAPSED WALLCLOCK TIME (SEC) =          0

               CONVERGENCE CHECKS FOR EQUILIBRIUM ITERATION     3


 AVERAGE FORCE                       208.       TIME AVG. FORCE        125.    
 LARGEST RESIDUAL FORCE             0.138       AT NODE       8842   DOF  1
 LARGEST INCREMENT OF DISP.         1.693E-02   AT NODE    1377857   DOF  2
 LARGEST CORRECTION TO DISP.        5.408E-05   AT NODE        641   DOF  2
          THE FORCE     EQUILIBRIUM EQUATIONS HAVE CONVERGED

 AVERAGE MOMENT                     1.184E-21   TIME AVG. MOMENT       13.7    
                                                (FROM FORCE     FIELD)
 LARGEST RESIDUAL MOMENT            2.368E-21   AT NODE   50000001   DOF  6
 LARGEST INCREMENT OF ROTATION      8.790E-04   AT NODE   50000001   DOF  6
 LARGEST CORRECTION TO ROTATION    -5.332E-08   AT NODE   50000001   DOF  6
          THERE IS ZERO MOMENT    EVERYWHERE
          TIME INCREMENT MAY NOW INCREASE TO    3.168E-02

 ITERATION SUMMARY FOR THE INCREMENT:   3 TOTAL ITERATIONS, OF WHICH
   0 ARE SEVERE DISCONTINUITY ITERATIONS AND  3 ARE EQUILIBRIUM ITERATIONS.

 TIME INCREMENT COMPLETED  2.112E-02,  FRACTION OF STEP COMPLETED  0.283    
 STEP TIME COMPLETED       0.283    ,  TOTAL TIME COMPLETED        0.283    


  INCREMENT    14 STARTS. ATTEMPT NUMBER  1, TIME INCREMENT  3.168E-02

  NUMBER OF EQUATIONS =     16235     NUMBER OF RHS =    1
  NUMBER OF FLOATING PT. OPERATIONS =  9.71E+07

     CHECK POINT   START OF SOLVER    

     CHECK POINT  END OF SOLVER       

       ELAPSED USER TIME (SEC)      =  0.10000    
       ELAPSED SYSTEM TIME (SEC)    =   0.0000    
       ELAPSED TOTAL CPU TIME (SEC) =  0.10000    
       ELAPSED WALLCLOCK TIME (SEC) =          0

               CONVERGENCE CHECKS FOR EQUILIBRIUM ITERATION     1


 AVERAGE FORCE                       218.       TIME AVG. FORCE        131.    
 LARGEST RESIDUAL FORCE              119.       AT NODE     262497   DOF  1
 LARGEST INCREMENT OF DISP.         2.537E-02   AT NODE    1377857   DOF  2
 LARGEST CORRECTION TO DISP.        1.369E-03   AT NODE        640   DOF  1
          FORCE     EQUILIBRIUM NOT ACHIEVED WITHIN TOLERANCE.

 AVERAGE MOMENT                     8.682E-16   TIME AVG. MOMENT       14.5    
                                                (FROM FORCE     FIELD)
 LARGEST RESIDUAL MOMENT           -1.735E-15   AT NODE   50000001   DOF  6
 LARGEST INCREMENT OF ROTATION      1.321E-03   AT NODE   50000001   DOF  6
 LARGEST CORRECTION TO ROTATION     2.567E-06   AT NODE   50000001   DOF  6
          THERE IS ZERO MOMENT    EVERYWHERE

  NUMBER OF EQUATIONS =     16235     NUMBER OF RHS =    1
  NUMBER OF FLOATING PT. OPERATIONS =  9.71E+07

     CHECK POINT   START OF SOLVER    

     CHECK POINT  END OF SOLVER       

       ELAPSED USER TIME (SEC)      =  0.10000    
       ELAPSED SYSTEM TIME (SEC)    =   0.0000    
       ELAPSED TOTAL CPU TIME (SEC) =  0.10000    
       ELAPSED WALLCLOCK TIME (SEC) =          0

               CONVERGENCE CHECKS FOR EQUILIBRIUM ITERATION     2


 AVERAGE FORCE                       218.       TIME AVG. FORCE        131.    
 LARGEST RESIDUAL FORCE              110.       AT NODE       2687   DOF  2
 LARGEST INCREMENT OF DISP.         2.537E-02   AT NODE    1377857   DOF  2
 LARGEST CORRECTION TO DISP.        1.850E-03   AT NODE        640   DOF  2
          FORCE     EQUILIBRIUM NOT ACHIEVED WITHIN TOLERANCE.

 AVERAGE MOMENT                     8.682E-16   TIME AVG. MOMENT       14.5    
                                                (FROM FORCE     FIELD)
 LARGEST RESIDUAL MOMENT           -1.735E-15   AT NODE   50000001   DOF  6
 LARGEST INCREMENT OF ROTATION      1.321E-03   AT NODE   50000001   DOF  6
 LARGEST CORRECTION TO ROTATION     3.660E-08   AT NODE   50000001   DOF  6
          THERE IS ZERO MOMENT    EVERYWHERE

  NUMBER OF EQUATIONS =     16235     NUMBER OF RHS =    1
  NUMBER OF FLOATING PT. OPERATIONS =  9.71E+07

     CHECK POINT   START OF SOLVER    

     CHECK POINT  END OF SOLVER       

       ELAPSED USER TIME (SEC)      =   0.0000    
       ELAPSED SYSTEM TIME (SEC)    =   0.0000    
       ELAPSED TOTAL CPU TIME (SEC) =   0.0000    
       ELAPSED WALLCLOCK TIME (SEC) =          0

 ***WARNING: THE STRAIN INCREMENT HAS EXCEEDED FIFTY TIMES THE STRAIN TO CAUSE 
             FIRST YIELD AT 3 POINTS

               CONVERGENCE CHECKS FOR EQUILIBRIUM ITERATION     3


 AVERAGE FORCE                       218.       TIME AVG. FORCE        131.    
 LARGEST RESIDUAL FORCE             2.032E+03   AT NODE        640   DOF  2
 LARGEST INCREMENT OF DISP.         2.537E-02   AT NODE    1377857   DOF  2
 LARGEST CORRECTION TO DISP.       -1.069E-02   AT NODE        640   DOF  2
          FORCE     EQUILIBRIUM NOT ACHIEVED WITHIN TOLERANCE.

 AVERAGE MOMENT                     2.493E-20   TIME AVG. MOMENT       14.5    
                                                (FROM FORCE     FIELD)
 LARGEST RESIDUAL MOMENT           -4.986E-20   AT NODE   50000001   DOF  6
 LARGEST INCREMENT OF ROTATION      1.322E-03   AT NODE   50000001   DOF  6
 LARGEST CORRECTION TO ROTATION     1.131E-06   AT NODE   50000001   DOF  6
          THERE IS ZERO MOMENT    EVERYWHERE

  NUMBER OF EQUATIONS =     16235     NUMBER OF RHS =    1
  NUMBER OF FLOATING PT. OPERATIONS =  9.71E+07

     CHECK POINT   START OF SOLVER    

     CHECK POINT  END OF SOLVER       

       ELAPSED USER TIME (SEC)      =   0.0000    
       ELAPSED SYSTEM TIME (SEC)    =   0.0000    
       ELAPSED TOTAL CPU TIME (SEC) =   0.0000    
       ELAPSED WALLCLOCK TIME (SEC) =          0

 ***WARNING: THE STRAIN INCREMENT HAS EXCEEDED FIFTY TIMES THE STRAIN TO CAUSE 
             FIRST YIELD AT 5 POINTS

               CONVERGENCE CHECKS FOR EQUILIBRIUM ITERATION     4


 AVERAGE FORCE                       217.       TIME AVG. FORCE        131.    
 LARGEST RESIDUAL FORCE             -403.       AT NODE       6785   DOF  1
 LARGEST INCREMENT OF DISP.         2.537E-02   AT NODE    1377857   DOF  2
 LARGEST CORRECTION TO DISP.        1.594E-02   AT NODE       2688   DOF  1
          FORCE     EQUILIBRIUM NOT ACHIEVED WITHIN TOLERANCE.

 AVERAGE MOMENT                     8.682E-16   TIME AVG. MOMENT       14.5    
                                                (FROM FORCE     FIELD)
 LARGEST RESIDUAL MOMENT            1.735E-15   AT NODE   50000001   DOF  6
 LARGEST INCREMENT OF ROTATION      1.321E-03   AT NODE   50000001   DOF  6
 LARGEST CORRECTION TO ROTATION    -7.185E-07   AT NODE   50000001   DOF  6
          THERE IS ZERO MOMENT    EVERYWHERE

  NUMBER OF EQUATIONS =     16235     NUMBER OF RHS =    1
  NUMBER OF FLOATING PT. OPERATIONS =  9.71E+07

     CHECK POINT   START OF SOLVER    

     CHECK POINT  END OF SOLVER       

       ELAPSED USER TIME (SEC)      =   0.0000    
       ELAPSED SYSTEM TIME (SEC)    =   0.0000    
       ELAPSED TOTAL CPU TIME (SEC) =   0.0000    
       ELAPSED WALLCLOCK TIME (SEC) =          0

 ***WARNING: THE STRAIN INCREMENT HAS EXCEEDED FIFTY TIMES THE STRAIN TO CAUSE 
             FIRST YIELD AT 38 POINTS

               CONVERGENCE CHECKS FOR EQUILIBRIUM ITERATION     5


 AVERAGE FORCE                       217.       TIME AVG. FORCE        131.    
 LARGEST RESIDUAL FORCE              787.       AT NODE        636   DOF  2
 LARGEST INCREMENT OF DISP.         6.260E-02   AT NODE       4736   DOF  1
 LARGEST CORRECTION TO DISP.       -6.609E-02   AT NODE       2688   DOF  1
          FORCE     EQUILIBRIUM NOT ACHIEVED WITHIN TOLERANCE.

 AVERAGE MOMENT                     8.684E-16   TIME AVG. MOMENT       14.5    
                                                (FROM FORCE     FIELD)
 LARGEST RESIDUAL MOMENT            1.735E-15   AT NODE   50000001   DOF  6
 LARGEST INCREMENT OF ROTATION      1.316E-03   AT NODE   50000001   DOF  6
 LARGEST CORRECTION TO ROTATION    -5.818E-06   AT NODE   50000001   DOF  6
          THERE IS ZERO MOMENT    EVERYWHERE

  NUMBER OF EQUATIONS =     16235     NUMBER OF RHS =    1
  NUMBER OF FLOATING PT. OPERATIONS =  9.71E+07

     CHECK POINT   START OF SOLVER    

     CHECK POINT  END OF SOLVER       

       ELAPSED USER TIME (SEC)      =   0.0000    
       ELAPSED SYSTEM TIME (SEC)    =   0.0000    
       ELAPSED TOTAL CPU TIME (SEC) =   0.0000    
       ELAPSED WALLCLOCK TIME (SEC) =          0

 ***WARNING: THE STRAIN INCREMENT HAS EXCEEDED FIFTY TIMES THE STRAIN TO CAUSE 
             FIRST YIELD AT 160 POINTS

 ***WARNING: THE STRAIN INCREMENT IS SO LARGE THAT THE PROGRAM WILL NOT ATTEMPT 
             THE PLASTICITY CALCULATION AT 11 POINTS
 

 ***NOTE: MATERIAL CALCULATIONS FAILED TO CONVERGE OR WERE NOT ATTEMPTED AT ONE 
          OR MORE POINTS. CONVERGENCE IS JUDGED UNLIKELY.


  INCREMENT    14 STARTS. ATTEMPT NUMBER  2, TIME INCREMENT  7.919E-03

  NUMBER OF EQUATIONS =     16235     NUMBER OF RHS =    1
  NUMBER OF FLOATING PT. OPERATIONS =  9.71E+07

     CHECK POINT   START OF SOLVER    

     CHECK POINT  END OF SOLVER       

       ELAPSED USER TIME (SEC)      =  0.10000    
       ELAPSED SYSTEM TIME (SEC)    =   0.0000    
       ELAPSED TOTAL CPU TIME (SEC) =  0.10000    
       ELAPSED WALLCLOCK TIME (SEC) =          0

               CONVERGENCE CHECKS FOR EQUILIBRIUM ITERATION     1


 AVERAGE FORCE                       211.       TIME AVG. FORCE        131.    
 LARGEST RESIDUAL FORCE              5.10       AT NODE        640   DOF  2
 LARGEST INCREMENT OF DISP.         6.346E-03   AT NODE    1377857   DOF  2
 LARGEST CORRECTION TO DISP.       -3.478E-04   AT NODE        641   DOF  2
          FORCE     EQUILIBRIUM NOT ACHIEVED WITHIN TOLERANCE.

 AVERAGE MOMENT                     1.208E-21   TIME AVG. MOMENT       14.5    
                                                (FROM FORCE     FIELD)
 LARGEST RESIDUAL MOMENT           -2.416E-21   AT NODE   50000001   DOF  6
[...]
 LARGEST CORRECTION TO ROTATION     5.140E-05   AT NODE   50000001   DOF  6
          THERE IS ZERO MOMENT    EVERYWHERE

  NUMBER OF EQUATIONS =     16235     NUMBER OF RHS =    1
  NUMBER OF FLOATING PT. OPERATIONS =  9.31E+07

     CHECK POINT   START OF SOLVER    

     CHECK POINT  END OF SOLVER       

       ELAPSED USER TIME (SEC)      =   0.0000    
       ELAPSED SYSTEM TIME (SEC)    =   0.0000    
       ELAPSED TOTAL CPU TIME (SEC) =   0.0000    
       ELAPSED WALLCLOCK TIME (SEC) =          1
 

 ***WARNING: THE SYSTEM MATRIX HAS 4 NEGATIVE EIGENVALUES.
             EXPLANATIONS ARE SUGGESTED AFTER THE FIRST OCCURRENCE OF THIS MESSAGE.

 ***WARNING: THE STRAIN INCREMENT HAS EXCEEDED FIFTY TIMES THE STRAIN TO CAUSE 
             FIRST YIELD AT 38 POINTS

               CONVERGENCE CHECKS FOR EQUILIBRIUM ITERATION     4


 AVERAGE FORCE                       173.       TIME AVG. FORCE        212.    
 LARGEST RESIDUAL FORCE            -1.098E+03   AT NODE      12821   DOF  1
 LARGEST INCREMENT OF DISP.         3.597E-02   AT NODE        547   DOF  2
 LARGEST CORRECTION TO DISP.        3.448E-02   AT NODE       2596   DOF  2
          FORCE     EQUILIBRIUM NOT ACHIEVED WITHIN TOLERANCE.

 AVERAGE MOMENT                     4.508E-19   TIME AVG. MOMENT       24.7    
                                                (FROM FORCE     FIELD)
 LARGEST RESIDUAL MOMENT            9.015E-19   AT NODE   50000001   DOF  6
 LARGEST INCREMENT OF ROTATION      1.914E-04   AT NODE   50000001   DOF  6
 LARGEST CORRECTION TO ROTATION     3.120E-05   AT NODE   50000001   DOF  6
          THERE IS ZERO MOMENT    EVERYWHERE

  NUMBER OF EQUATIONS =     16235     NUMBER OF RHS =    1
  NUMBER OF FLOATING PT. OPERATIONS =  9.30E+07

     CHECK POINT   START OF SOLVER    

     CHECK POINT  END OF SOLVER       

       ELAPSED USER TIME (SEC)      =   0.0000    
       ELAPSED SYSTEM TIME (SEC)    =   0.0000    
       ELAPSED TOTAL CPU TIME (SEC) =   0.0000    
       ELAPSED WALLCLOCK TIME (SEC) =          0
 

 ***WARNING: THE SYSTEM MATRIX HAS 1 NEGATIVE EIGENVALUES.
             EXPLANATIONS ARE SUGGESTED AFTER THE FIRST OCCURRENCE OF THIS MESSAGE.

 ***WARNING: THE STRAIN INCREMENT HAS EXCEEDED FIFTY TIMES THE STRAIN TO CAUSE 
             FIRST YIELD AT 128 POINTS

               CONVERGENCE CHECKS FOR EQUILIBRIUM ITERATION     5


 AVERAGE FORCE                       181.       TIME AVG. FORCE        212.    
 LARGEST RESIDUAL FORCE             4.055E+04   AT NODE        539   DOF  2
 LARGEST INCREMENT OF DISP.         8.066E-02   AT NODE      12835   DOF  2
 LARGEST CORRECTION TO DISP.       -9.210E-02   AT NODE        547   DOF  2
          FORCE     EQUILIBRIUM NOT ACHIEVED WITHIN TOLERANCE.

 AVERAGE MOMENT                     9.911E-19   TIME AVG. MOMENT       24.7    
                                                (FROM FORCE     FIELD)
 LARGEST RESIDUAL MOMENT           -1.982E-18   AT NODE   50000001   DOF  6
 LARGEST INCREMENT OF ROTATION      1.227E-04   AT NODE   50000001   DOF  6
 LARGEST CORRECTION TO ROTATION    -6.871E-05   AT NODE   50000001   DOF  6
          THERE IS ZERO MOMENT    EVERYWHERE
 

 ***NOTE: THE SOLUTION APPEARS TO BE DIVERGING. CONVERGENCE IS JUDGED UNLIKELY.


  INCREMENT   336 STARTS. ATTEMPT NUMBER  2, TIME INCREMENT  1.252E-03

  NUMBER OF EQUATIONS =     16235     NUMBER OF RHS =    1
  NUMBER OF FLOATING PT. OPERATIONS =  9.32E+07

     CHECK POINT   START OF SOLVER    

     CHECK POINT  END OF SOLVER       

       ELAPSED USER TIME (SEC)      =  0.10000    
       ELAPSED SYSTEM TIME (SEC)    =   0.0000    
       ELAPSED TOTAL CPU TIME (SEC) =  0.10000    
       ELAPSED WALLCLOCK TIME (SEC) =          0

               CONVERGENCE CHECKS FOR EQUILIBRIUM ITERATION     1


 AVERAGE FORCE                       177.       TIME AVG. FORCE        212.    
 LARGEST RESIDUAL FORCE             -17.0       AT NODE       2597   DOF  1
 LARGEST INCREMENT OF DISP.         1.006E-03   AT NODE     198209   DOF  2
 LARGEST CORRECTION TO DISP.        1.237E-04   AT NODE        547   DOF  2
          FORCE     EQUILIBRIUM NOT ACHIEVED WITHIN TOLERANCE.

 AVERAGE MOMENT                     6.946E-15   TIME AVG. MOMENT       24.7    
                                                (FROM FORCE     FIELD)
 LARGEST RESIDUAL MOMENT           -1.388E-14   AT NODE   50000001   DOF  6
 LARGEST INCREMENT OF ROTATION      4.783E-05   AT NODE   50000001   DOF  6
 LARGEST CORRECTION TO ROTATION    -6.493E-07   AT NODE   50000001   DOF  6
          THERE IS ZERO MOMENT    EVERYWHERE

  NUMBER OF EQUATIONS =     16235     NUMBER OF RHS =    1
  NUMBER OF FLOATING PT. OPERATIONS =  9.32E+07

     CHECK POINT   START OF SOLVER    

     CHECK POINT  END OF SOLVER       

       ELAPSED USER TIME (SEC)      =   0.0000    
       ELAPSED SYSTEM TIME (SEC)    =   0.0000    
       ELAPSED TOTAL CPU TIME (SEC) =   0.0000    
       ELAPSED WALLCLOCK TIME (SEC) =          0

               CONVERGENCE CHECKS FOR EQUILIBRIUM ITERATION     2


 AVERAGE FORCE                       177.       TIME AVG. FORCE        212.    
 LARGEST RESIDUAL FORCE            -0.327       AT NODE       2599   DOF  2
 LARGEST INCREMENT OF DISP.         1.006E-03   AT NODE     198209   DOF  2
 LARGEST CORRECTION TO DISP.        1.550E-05   AT NODE        550   DOF  2
 ESTIMATE OF DISP.    CORRECTION   -6.307E-07
 FORCE     EQUILIB. ACCEPTED BASED ON SMALL RESIDUAL AND ESTIMATED CORRECTION

 AVERAGE MOMENT                     6.946E-15   TIME AVG. MOMENT       24.7    
                                                (FROM FORCE     FIELD)
 LARGEST RESIDUAL MOMENT            1.388E-14   AT NODE   50000001   DOF  6
 LARGEST INCREMENT OF ROTATION      4.773E-05   AT NODE   50000001   DOF  6
 LARGEST CORRECTION TO ROTATION    -9.647E-08   AT NODE   50000001   DOF  6
          THERE IS ZERO MOMENT    EVERYWHERE
          TIME INCREMENT MAY NOW INCREASE TO    1.877E-03

 ITERATION SUMMARY FOR THE INCREMENT:   2 TOTAL ITERATIONS, OF WHICH
   0 ARE SEVERE DISCONTINUITY ITERATIONS AND  2 ARE EQUILIBRIUM ITERATIONS.

 TIME INCREMENT COMPLETED  1.252E-03,  FRACTION OF STEP COMPLETED  0.993    
 STEP TIME COMPLETED       0.993    ,  TOTAL TIME COMPLETED        0.993    


  INCREMENT   337 STARTS. ATTEMPT NUMBER  1, TIME INCREMENT  1.877E-03

  NUMBER OF EQUATIONS =     16235     NUMBER OF RHS =    1
  NUMBER OF FLOATING PT. OPERATIONS =  9.32E+07

     CHECK POINT   START OF SOLVER    

     CHECK POINT  END OF SOLVER       

       ELAPSED USER TIME (SEC)      =  0.10000    
       ELAPSED SYSTEM TIME (SEC)    =   0.0000    
       ELAPSED TOTAL CPU TIME (SEC) =  0.10000    
       ELAPSED WALLCLOCK TIME (SEC) =          0

               CONVERGENCE CHECKS FOR EQUILIBRIUM ITERATION     1


 AVERAGE FORCE                       177.       TIME AVG. FORCE        212.    
 LARGEST RESIDUAL FORCE             -30.5       AT NODE       2596   DOF  1
 LARGEST INCREMENT OF DISP.         1.511E-03   AT NODE     198209   DOF  2
 LARGEST CORRECTION TO DISP.        3.146E-04   AT NODE        546   DOF  2
          FORCE     EQUILIBRIUM NOT ACHIEVED WITHIN TOLERANCE.

 AVERAGE MOMENT                     3.473E-15   TIME AVG. MOMENT       24.7    
                                                (FROM FORCE     FIELD)
 LARGEST RESIDUAL MOMENT            6.939E-15   AT NODE   50000001   DOF  6
 LARGEST INCREMENT OF ROTATION      7.054E-05   AT NODE   50000001   DOF  6
 LARGEST CORRECTION TO ROTATION    -1.058E-06   AT NODE   50000001   DOF  6
          THERE IS ZERO MOMENT    EVERYWHERE

  NUMBER OF EQUATIONS =     16235     NUMBER OF RHS =    1
  NUMBER OF FLOATING PT. OPERATIONS =  9.32E+07

     CHECK POINT   START OF SOLVER    

     CHECK POINT  END OF SOLVER       

       ELAPSED USER TIME (SEC)      =  0.10000    
       ELAPSED SYSTEM TIME (SEC)    =   0.0000    
       ELAPSED TOTAL CPU TIME (SEC) =  0.10000    
       ELAPSED WALLCLOCK TIME (SEC) =          0

               CONVERGENCE CHECKS FOR EQUILIBRIUM ITERATION     2


 AVERAGE FORCE                       177.       TIME AVG. FORCE        212.    
 LARGEST RESIDUAL FORCE             0.666       AT NODE       4642   DOF  2
 LARGEST INCREMENT OF DISP.         1.511E-03   AT NODE     198209   DOF  2
 LARGEST CORRECTION TO DISP.       -3.859E-05   AT NODE        546   DOF  2
 ESTIMATE OF DISP.    CORRECTION   -1.617E-06
 FORCE     EQUILIB. ACCEPTED BASED ON SMALL RESIDUAL AND ESTIMATED CORRECTION

 AVERAGE MOMENT                     3.473E-15   TIME AVG. MOMENT       24.7    
                                                (FROM FORCE     FIELD)
 LARGEST RESIDUAL MOMENT           -6.939E-15   AT NODE   50000001   DOF  6
 LARGEST INCREMENT OF ROTATION      7.037E-05   AT NODE   50000001   DOF  6
 LARGEST CORRECTION TO ROTATION    -1.617E-07   AT NODE   50000001   DOF  6
          THERE IS ZERO MOMENT    EVERYWHERE
          TIME INCREMENT MAY NOW INCREASE TO    2.816E-03

 ITERATION SUMMARY FOR THE INCREMENT:   2 TOTAL ITERATIONS, OF WHICH
   0 ARE SEVERE DISCONTINUITY ITERATIONS AND  2 ARE EQUILIBRIUM ITERATIONS.

 TIME INCREMENT COMPLETED  1.877E-03,  FRACTION OF STEP COMPLETED  0.994    
 STEP TIME COMPLETED       0.994    ,  TOTAL TIME COMPLETED        0.994    


  INCREMENT   338 STARTS. ATTEMPT NUMBER  1, TIME INCREMENT  2.816E-03

  NUMBER OF EQUATIONS =     16235     NUMBER OF RHS =    1
  NUMBER OF FLOATING PT. OPERATIONS =  9.32E+07

     CHECK POINT   START OF SOLVER    

     CHECK POINT  END OF SOLVER       

       ELAPSED USER TIME (SEC)      =   0.0000    
       ELAPSED SYSTEM TIME (SEC)    =   0.0000    
       ELAPSED TOTAL CPU TIME (SEC) =   0.0000    
       ELAPSED WALLCLOCK TIME (SEC) =          0

               CONVERGENCE CHECKS FOR EQUILIBRIUM ITERATION     1


 AVERAGE FORCE                       176.       TIME AVG. FORCE        212.    
 LARGEST RESIDUAL FORCE              55.4       AT NODE       2594   DOF  1
 LARGEST INCREMENT OF DISP.         2.260E-03   AT NODE     263745   DOF  2
 LARGEST CORRECTION TO DISP.       -4.863E-04   AT NODE        545   DOF  2
          FORCE     EQUILIBRIUM NOT ACHIEVED WITHIN TOLERANCE.

 AVERAGE MOMENT                     6.946E-15   TIME AVG. MOMENT       24.7    
                                                (FROM FORCE     FIELD)
 LARGEST RESIDUAL MOMENT           -1.388E-14   AT NODE   50000001   DOF  6
 LARGEST INCREMENT OF ROTATION      1.085E-04   AT NODE   50000001   DOF  6
 LARGEST CORRECTION TO ROTATION     2.923E-06   AT NODE   50000001   DOF  6
          THERE IS ZERO MOMENT    EVERYWHERE

  NUMBER OF EQUATIONS =     16235     NUMBER OF RHS =    1
  NUMBER OF FLOATING PT. OPERATIONS =  9.32E+07

     CHECK POINT   START OF SOLVER    

     CHECK POINT  END OF SOLVER       

       ELAPSED USER TIME (SEC)      =  0.10000    
       ELAPSED SYSTEM TIME (SEC)    =   0.0000    
       ELAPSED TOTAL CPU TIME (SEC) =  0.10000    
       ELAPSED WALLCLOCK TIME (SEC) =          0

               CONVERGENCE CHECKS FOR EQUILIBRIUM ITERATION     2


 AVERAGE FORCE                       176.       TIME AVG. FORCE        212.    
 LARGEST RESIDUAL FORCE             -7.49       AT NODE       4643   DOF  2
 LARGEST INCREMENT OF DISP.         2.261E-03   AT NODE     198209   DOF  2
 LARGEST CORRECTION TO DISP.        3.499E-04   AT NODE        545   DOF  2
          FORCE     EQUILIBRIUM NOT ACHIEVED WITHIN TOLERANCE.

 AVERAGE MOMENT                     6.946E-15   TIME AVG. MOMENT       24.7    
                                                (FROM FORCE     FIELD)
 LARGEST RESIDUAL MOMENT            1.388E-14   AT NODE   50000001   DOF  6
 LARGEST INCREMENT OF ROTATION      1.082E-04   AT NODE   50000001   DOF  6
 LARGEST CORRECTION TO ROTATION    -2.677E-07   AT NODE   50000001   DOF  6
          THERE IS ZERO MOMENT    EVERYWHERE

  NUMBER OF EQUATIONS =     16235     NUMBER OF RHS =    1
  NUMBER OF FLOATING PT. OPERATIONS =  9.32E+07

     CHECK POINT   START OF SOLVER    

     CHECK POINT  END OF SOLVER       

       ELAPSED USER TIME (SEC)      =  0.10000    
       ELAPSED SYSTEM TIME (SEC)    =   0.0000    
       ELAPSED TOTAL CPU TIME (SEC) =  0.10000    
       ELAPSED WALLCLOCK TIME (SEC) =          0

               CONVERGENCE CHECKS FOR EQUILIBRIUM ITERATION     3


 AVERAGE FORCE                       176.       TIME AVG. FORCE        212.    
 LARGEST RESIDUAL FORCE            -0.574       AT NODE      14883   DOF  2
 LARGEST INCREMENT OF DISP.         2.261E-03   AT NODE     198209   DOF  2
 LARGEST CORRECTION TO DISP.       -1.540E-05   AT NODE        545   DOF  1
          THE FORCE     EQUILIBRIUM EQUATIONS HAVE CONVERGED

 AVERAGE MOMENT                     3.473E-15   TIME AVG. MOMENT       24.7    
                                                (FROM FORCE     FIELD)
 LARGEST RESIDUAL MOMENT           -6.939E-15   AT NODE   50000001   DOF  6
 LARGEST INCREMENT OF ROTATION      1.082E-04   AT NODE   50000001   DOF  6
 LARGEST CORRECTION TO ROTATION    -5.769E-08   AT NODE   50000001   DOF  6
          THERE IS ZERO MOMENT    EVERYWHERE

 ITERATION SUMMARY FOR THE INCREMENT:   3 TOTAL ITERATIONS, OF WHICH
   0 ARE SEVERE DISCONTINUITY ITERATIONS AND  3 ARE EQUILIBRIUM ITERATIONS.

 TIME INCREMENT COMPLETED  2.816E-03,  FRACTION OF STEP COMPLETED  0.997    
 STEP TIME COMPLETED       0.997    ,  TOTAL TIME COMPLETED        0.997    


  INCREMENT   339 STARTS. ATTEMPT NUMBER  1, TIME INCREMENT  2.743E-03

  NUMBER OF EQUATIONS =     16235     NUMBER OF RHS =    1
  NUMBER OF FLOATING PT. OPERATIONS =  9.32E+07

     CHECK POINT   START OF SOLVER    

     CHECK POINT  END OF SOLVER       

       ELAPSED USER TIME (SEC)      =  0.10000    
       ELAPSED SYSTEM TIME (SEC)    =   0.0000    
       ELAPSED TOTAL CPU TIME (SEC) =  0.10000    
       ELAPSED WALLCLOCK TIME (SEC) =          0

               CONVERGENCE CHECKS FOR EQUILIBRIUM ITERATION     1


 AVERAGE FORCE                       176.       TIME AVG. FORCE        212.    
 LARGEST RESIDUAL FORCE             -42.4       AT NODE       2594   DOF  2
 LARGEST INCREMENT OF DISP.         2.204E-03   AT NODE     198209   DOF  2
 LARGEST CORRECTION TO DISP.        2.531E-04   AT NODE        545   DOF  2
          FORCE     EQUILIBRIUM NOT ACHIEVED WITHIN TOLERANCE.

 AVERAGE MOMENT                     3.473E-15   TIME AVG. MOMENT       24.7    
                                                (FROM FORCE     FIELD)
 LARGEST RESIDUAL MOMENT            6.939E-15   AT NODE   50000001   DOF  6
 LARGEST INCREMENT OF ROTATION      1.052E-04   AT NODE   50000001   DOF  6
 LARGEST CORRECTION TO ROTATION    -1.917E-07   AT NODE   50000001   DOF  6
          THERE IS ZERO MOMENT    EVERYWHERE

  NUMBER OF EQUATIONS =     16235     NUMBER OF RHS =    1
  NUMBER OF FLOATING PT. OPERATIONS =  9.32E+07

     CHECK POINT   START OF SOLVER    

     CHECK POINT  END OF SOLVER       

       ELAPSED USER TIME (SEC)      =   0.0000    
       ELAPSED SYSTEM TIME (SEC)    =   0.0000    
       ELAPSED TOTAL CPU TIME (SEC) =   0.0000    
       ELAPSED WALLCLOCK TIME (SEC) =          0

               CONVERGENCE CHECKS FOR EQUILIBRIUM ITERATION     2


 AVERAGE FORCE                       176.       TIME AVG. FORCE        212.    
 LARGEST RESIDUAL FORCE              3.23       AT NODE        544   DOF  2
 LARGEST INCREMENT OF DISP.         2.203E-03   AT NODE     198209   DOF  2
 LARGEST CORRECTION TO DISP.       -8.540E-05   AT NODE        545   DOF  2
          FORCE     EQUILIBRIUM NOT ACHIEVED WITHIN TOLERANCE.

 AVERAGE MOMENT                     1.386E-21   TIME AVG. MOMENT       24.7    
                                                (FROM FORCE     FIELD)
 LARGEST RESIDUAL MOMENT           -2.773E-21   AT NODE   50000001   DOF  6
 LARGEST INCREMENT OF ROTATION      1.051E-04   AT NODE   50000001   DOF  6
 LARGEST CORRECTION TO ROTATION    -9.889E-08   AT NODE   50000001   DOF  6
          THERE IS ZERO MOMENT    EVERYWHERE

  NUMBER OF EQUATIONS =     16235     NUMBER OF RHS =    1
  NUMBER OF FLOATING PT. OPERATIONS =  9.32E+07

     CHECK POINT   START OF SOLVER    

     CHECK POINT  END OF SOLVER       

       ELAPSED USER TIME (SEC)      =   0.0000    
       ELAPSED SYSTEM TIME (SEC)    =   0.0000    
       ELAPSED TOTAL CPU TIME (SEC) =   0.0000    
       ELAPSED WALLCLOCK TIME (SEC) =          0

               CONVERGENCE CHECKS FOR EQUILIBRIUM ITERATION     3


 AVERAGE FORCE                       176.       TIME AVG. FORCE        212.    
 LARGEST RESIDUAL FORCE             -1.38       AT NODE       6691   DOF  1
 LARGEST INCREMENT OF DISP.         2.204E-03   AT NODE     198209   DOF  2
 LARGEST CORRECTION TO DISP.        1.776E-05   AT NODE        544   DOF  2
          FORCE     EQUILIBRIUM NOT ACHIEVED WITHIN TOLERANCE.

 AVERAGE MOMENT                     1.171E-21   TIME AVG. MOMENT       24.7    
                                                (FROM FORCE     FIELD)
 LARGEST RESIDUAL MOMENT           -2.342E-21   AT NODE   50000001   DOF  6
 LARGEST INCREMENT OF ROTATION      1.050E-04   AT NODE   50000001   DOF  6
 LARGEST CORRECTION TO ROTATION    -8.007E-08   AT NODE   50000001   DOF  6
          THERE IS ZERO MOMENT    EVERYWHERE

  NUMBER OF EQUATIONS =     16235     NUMBER OF RHS =    1
  NUMBER OF FLOATING PT. OPERATIONS =  9.32E+07

     CHECK POINT   START OF SOLVER    

     CHECK POINT  END OF SOLVER       

       ELAPSED USER TIME (SEC)      =   0.0000    
       ELAPSED SYSTEM TIME (SEC)    =   0.0000    
       ELAPSED TOTAL CPU TIME (SEC) =   0.0000    
       ELAPSED WALLCLOCK TIME (SEC) =          0

               CONVERGENCE CHECKS FOR EQUILIBRIUM ITERATION     4


 AVERAGE FORCE                       176.       TIME AVG. FORCE        212.    
 LARGEST RESIDUAL FORCE            -4.863E-02   AT NODE      53796   DOF  1
 LARGEST INCREMENT OF DISP.         2.204E-03   AT NODE     198209   DOF  2
 LARGEST CORRECTION TO DISP.       -1.051E-06   AT NODE       6690   DOF  2
          THE FORCE     EQUILIBRIUM EQUATIONS HAVE CONVERGED

 AVERAGE MOMENT                     7.028E-23   TIME AVG. MOMENT       24.7    
                                                (FROM FORCE     FIELD)
 LARGEST RESIDUAL MOMENT           -1.406E-22   AT NODE   50000001   DOF  6
 LARGEST INCREMENT OF ROTATION      1.050E-04   AT NODE   50000001   DOF  6
 LARGEST CORRECTION TO ROTATION    -4.899E-09   AT NODE   50000001   DOF  6
          THERE IS ZERO MOMENT    EVERYWHERE

 ITERATION SUMMARY FOR THE INCREMENT:   4 TOTAL ITERATIONS, OF WHICH
   0 ARE SEVERE DISCONTINUITY ITERATIONS AND  4 ARE EQUILIBRIUM ITERATIONS.

 TIME INCREMENT COMPLETED  2.743E-03,  FRACTION OF STEP COMPLETED   1.00    
 STEP TIME COMPLETED        1.00    ,  TOTAL TIME COMPLETED         1.00    


          THE ANALYSIS HAS BEEN COMPLETED



     ANALYSIS SUMMARY:
     TOTAL OF        339  INCREMENTS
                      96  CUTBACKS IN AUTOMATIC INCREMENTATION
                    1202  ITERATIONS INCLUDING CONTACT ITERATIONS IF PRESENT
                    1202  PASSES THROUGH THE EQUATION SOLVER OF WHICH 
                    1201  INVOLVE MATRIX DECOMPOSITION, INCLUDING
                       0  DECOMPOSITION(S) OF THE MASS MATRIX
                       1  REORDERING OF EQUATIONS TO MINIMIZE WAVEFRONT
                       0  ADDITIONAL RESIDUAL EVALUATIONS FOR LINE SEARCHES
                       0  ADDITIONAL OPERATOR EVALUATIONS FOR LINE SEARCHES
                       2  WARNING MESSAGES DURING USER INPUT PROCESSING
                     525  WARNING MESSAGES DURING ANALYSIS
                       0  ANALYSIS WARNINGS ARE NUMERICAL PROBLEM MESSAGES
                     233  ANALYSIS WARNINGS ARE NEGATIVE EIGENVALUE MESSAGES
                       0  ERROR MESSAGES



     JOB TIME SUMMARY
       USER TIME (SEC)      =   136.70    
       SYSTEM TIME (SEC)    =   10.200    
       TOTAL CPU TIME (SEC) =   146.90    
       WALLCLOCK TIME (SEC) =        159
