 Abaqus/Standard 3DEXPERIENCE R2018x                  DATE 07-Nov-2023 TIME 13:02:11
 SUMMARY OF JOB INFORMATION:
 STEP  INC ATT SEVERE EQUIL TOTAL  TOTAL      STEP       INC OF       DOF    IF
               DISCON ITERS ITERS  TIME/    TIME/LPF    TIME/LPF    MONITOR RIKS
               ITERS               FREQ
   1     1   1     0     1     1  0.0156     0.0156     0.01563   
   1     2   1     0     2     2  0.0313     0.0313     0.01563   
   1     3   1     0     3     3  0.0547     0.0547     0.02344   
   1     4   1     0     4     4  0.0898     0.0898     0.03516   
   1     5   1U    0     4     4  0.0898     0.0898     0.05273   
   1     5   2     0     3     3  0.103      0.103      0.01318   
   1     6   1     0     3     3  0.123      0.123      0.01978   
   1     7   1     0     3     3  0.152      0.152      0.02966   
   1     8   1     0     3     3  0.197      0.197      0.04449   
   1     9   1U    0     3     3  0.197      0.197      0.06674   
   1     9   2     0     3     3  0.214      0.214      0.01669   
   1    10   1     0     3     3  0.239      0.239      0.02503   
   1    11   1U    0     4     4  0.239      0.239      0.03754   
   1    11   2     0     3     3  0.248      0.248      0.009386  
   1    12   1     0     2     2  0.262      0.262      0.01408   
   1    13   1     0     3     3  0.283      0.283      0.02112   
   1    14   1U    0     6     6  0.283      0.283      0.03168   
   1    14   2     0     3     3  0.291      0.291      0.007919  
   1    15   1     0     3     3  0.303      0.303      0.01188   
   1    16   1     0     3     3  0.321      0.321      0.01782   
   1    17   1     0     2     2  0.348      0.348      0.02673   
   1    18   1U    0     4     4  0.348      0.348      0.04009   
   1    18   2U    0     4     4  0.348      0.348      0.01002   
   1    18   3     0     5     5  0.350      0.350      0.002506  
   1    19   1     0     2     2  0.353      0.353      0.002506  
   1    20   1     0     1     1  0.355      0.355      0.002506  
   1    21   1U    0     4     4  0.355      0.355      0.003758  
   1    21   2     0     3     3  0.356      0.356      0.0009396 
   1    22   1     0     1     1  0.357      0.357      0.001409  
   1    23   1     0     1     1  0.360      0.360      0.002114  
   1    24   1     0     1     1  0.363      0.363      0.003171  
   1    25   1     0     2     2  0.368      0.368      0.004757  
   1    26   1     0     3     3  0.375      0.375      0.007135  
   1    27   1     0     3     3  0.385      0.385      0.01070   
   1    28   1U    0     4     4  0.385      0.385      0.01605   
   1    28   2     0     3     3  0.389      0.389      0.004014  
   1    29   1U    0     9     9  0.389      0.389      0.006020  
   1    29   2     0     2     2  0.391      0.391      0.001505  
   1    30   1     0     2     2  0.393      0.393      0.002258  
   1    31   1     0     5     5  0.397      0.397      0.003386  
   1    32   1     0     3     3  0.400      0.400      0.003386  
   1    33   1     0     1     1  0.403      0.403      0.003386  
   1    34   1     0     2     2  0.408      0.408      0.005080  
   1    35   1U    0     4     4  0.408      0.408      0.007620  
   1    35   2     0     1     1  0.410      0.410      0.001905  
   1    36   1     0     2     2  0.413      0.413      0.002857  
   1    37   1     0     2     2  0.417      0.417      0.004286  
   1    38   1     0     3     3  0.424      0.424      0.006429  
   1    39   1U    0     4     4  0.424      0.424      0.009643  
   1    39   2     0     2     2  0.426      0.426      0.002411  
   1    40   1     0     2     2  0.430      0.430      0.003616  
   1    41   1     0     3     3  0.435      0.435      0.005424  
   1    42   1U    0     4     4  0.435      0.435      0.008137  
   1    42   2     0     1     1  0.437      0.437      0.002034  
   1    43   1     0     3     3  0.440      0.440      0.003051  
   1    44   1U    0     4     4  0.440      0.440      0.004577  
   1    44   2     0     3     3  0.442      0.442      0.001144  
   1    45   1     0     1     1  0.443      0.443      0.001716  
   1    46   1     0     1     1  0.446      0.446      0.002574  
   1    47   1     0     3     3  0.450      0.450      0.003862  
   1    48   1     0     3     3  0.455      0.455      0.005793  
   1    49   1U    0     4     4  0.455      0.455      0.008689  
   1    49   2     0     2     2  0.458      0.458      0.002172  
   1    50   1     0     3     3  0.461      0.461      0.003258  
   1    51   1     0     4     4  0.466      0.466      0.004888  
   1    52   1U    0     4     4  0.466      0.466      0.007331  
   1    52   2     0     2     2  0.468      0.468      0.001833  
   1    53   1     0     2     2  0.470      0.470      0.002749  
   1    54   1     0     3     3  0.474      0.474      0.004124  
   1    55   1U    0     4     4  0.474      0.474      0.006186  
   1    55   2     0     2     2  0.476      0.476      0.001546  
   1    56   1     0     3     3  0.478      0.478      0.002320  
   1    57   1     0     2     2  0.482      0.482      0.003479  
   1    58   1     0     3     3  0.487      0.487      0.005219  
   1    59   1U    0     5     5  0.487      0.487      0.007829  
   1    59   2     0     2     2  0.489      0.489      0.001957  
   1    60   1     0     2     2  0.492      0.492      0.002936  
   1    61   1     0     3     3  0.496      0.496      0.004404  
   1    62   1U    0     5     5  0.496      0.496      0.006606  
   1    62   2     0     2     2  0.498      0.498      0.001651  
   1    63   1     0     2     2  0.500      0.500      0.002477  
   1    64   1     0     3     3  0.504      0.504      0.003716  
   1    65   1U    0     5     5  0.504      0.504      0.005573  
   1    65   2     0     2     2  0.506      0.506      0.001393  
   1    66   1     0     2     2  0.508      0.508      0.002090  
   1    67   1     0     2     2  0.511      0.511      0.003135  
   1    68   1     0     4     4  0.516      0.516      0.004703  
   1    69   1U    0     4     4  0.516      0.516      0.007054  
   1    69   2     0     2     2  0.517      0.517      0.001763  
   1    70   1     0     2     2  0.520      0.520      0.002645  
   1    71   1     0     4     4  0.524      0.524      0.003968  
   1    72   1U    0     4     4  0.524      0.524      0.005952  
   1    72   2     0     2     2  0.525      0.525      0.001488  
   1    73   1     0     2     2  0.528      0.528      0.002232  
   1    74   1     0     5     5  0.531      0.531      0.003348  
   1    75   1     0     3     3  0.534      0.534      0.003348  
   1    76   1     0     3     3  0.538      0.538      0.003348  
   1    77   1U    0     4     4  0.538      0.538      0.005022  
   1    77   2     0     2     2  0.539      0.539      0.001255  
   1    78   1     0     2     2  0.541      0.541      0.001883  
   1    79   1     0     3     3  0.544      0.544      0.002825  
   1    80   1     0     3     3  0.548      0.548      0.004237  
   1    81   1U    0     4     4  0.548      0.548      0.006356  
   1    81   2     0     3     3  0.549      0.549      0.001589  
   1    82   1     0     2     2  0.552      0.552      0.002383  
   1    83   1     0     3     3  0.555      0.555      0.003575  
   1    84   1U    0     4     4  0.555      0.555      0.005363  
   1    84   2     0     2     2  0.557      0.557      0.001341  
   1    85   1     0     3     3  0.559      0.559      0.002011  
   1    86   1     0     2     2  0.562      0.562      0.003016  
   1    87   1     0     4     4  0.566      0.566      0.004525  
   1    88   1U    0     4     4  0.566      0.566      0.006787  
   1    88   2     0     4     4  0.568      0.568      0.001697  
   1    89   1     0     2     2  0.571      0.571      0.002545  
   1    90   1U    0     5     5  0.571      0.571      0.003818  
   1    90   2     0     2     2  0.571      0.571      0.0009544 
   1    91   1     0     2     2  0.573      0.573      0.001432  
   1    92   1     0     2     2  0.575      0.575      0.002147  
   1    93   1U    0     4     4  0.575      0.575      0.003221  
   1    93   2     0     3     3  0.576      0.576      0.0008053 
   1    94   1     0     1     1  0.577      0.577      0.001208  
   1    95   1     0     2     2  0.579      0.579      0.001812  
   1    96   1     0     3     3  0.582      0.582      0.002718  
   1    97   1U    0     5     5  0.582      0.582      0.004077  
   1    97   2     0     1     1  0.583      0.583      0.001019  
   1    98   1     0     4     4  0.584      0.584      0.001529  
   1    99   1     0     2     2  0.586      0.586      0.002293  
   1   100   1     0     2     2  0.590      0.590      0.003440  
   1   101   1U    0     4     4  0.590      0.590      0.005160  
   1   101   2     0     2     2  0.591      0.591      0.001290  
   1   102   1U    0     4     4  0.591      0.591      0.001935  
   1   102   2     0     1     1  0.592      0.592      0.0004837 
   1   103   1     0     2     2  0.592      0.592      0.0007256 
   1   104   1     0     1     1  0.593      0.593      0.001088  
   1   105   1     0     1     1  0.595      0.595      0.001633  
   1   106   1     0     2     2  0.598      0.598      0.002449  
   1   107   1U    0     4     4  0.598      0.598      0.003673  
   1   107   2     0     2     2  0.598      0.598      0.0009183 
   1   108   1     0     2     2  0.600      0.600      0.001377  
   1   109   1     0     2     2  0.602      0.602      0.002066  
   1   110   1     0     5     5  0.605      0.605      0.003099  
   1   111   1     0     3     3  0.608      0.608      0.003099  
   1   112   1U    0     3     3  0.608      0.608      0.003099  
   1   112   2     0     2     2  0.609      0.609      0.0007748 
   1   113   1     0     1     1  0.610      0.610      0.001162  
   1   114   1     0     3     3  0.612      0.612      0.001743  
   1   115   1     0     5     5  0.614      0.614      0.002615  
   1   116   1     0     2     2  0.617      0.617      0.002615  
   1   117   1     0     3     3  0.620      0.620      0.002615  
   1   118   1     0     3     3  0.624      0.624      0.003923  
   1   119   1U    0     4     4  0.624      0.624      0.005884  
   1   119   2     0     2     2  0.625      0.625      0.001471  
   1   120   1U    0     4     4  0.625      0.625      0.002206  
   1   120   2     0     3     3  0.626      0.626      0.0005516 
   1   121   1     0     1     1  0.626      0.626      0.0008274 
   1   122   1     0     1     1  0.628      0.628      0.001241  
   1   123   1     0     2     2  0.630      0.630      0.001862  
   1   124   1     0     2     2  0.632      0.632      0.002793  
   1   125   1     0     3     3  0.637      0.637      0.004189  
   1   126   1U    0     4     4  0.637      0.637      0.006283  
   1   126   2     0     3     3  0.638      0.638      0.001571  
   1   127   1     0     2     2  0.640      0.640      0.002356  
   1   128   1     0     3     3  0.644      0.644      0.003534  
   1   129   1     0     3     3  0.649      0.649      0.005301  
   1   130   1U    0     3     3  0.649      0.649      0.007952  
   1   130   2     0     3     3  0.651      0.651      0.001988  
   1   131   1     0     3     3  0.654      0.654      0.002982  
   1   132   1U    0     5     5  0.654      0.654      0.004473  
   1   132   2     0     2     2  0.655      0.655      0.001118  
   1   133   1     0     1     1  0.657      0.657      0.001677  
   1   134   1     0     2     2  0.660      0.660      0.002516  
   1   135   1     0     4     4  0.663      0.663      0.003774  
   1   136   1U    0     5     5  0.663      0.663      0.005661  
   1   136   2     0     2     2  0.665      0.665      0.001415  
   1   137   1     0     2     2  0.667      0.667      0.002123  
   1   138   1     0     4     4  0.670      0.670      0.003184  
   1   139   1     0     3     3  0.675      0.675      0.004777  
   1   140   1U    0     4     4  0.675      0.675      0.007165  
   1   140   2     0     3     3  0.677      0.677      0.001791  
   1   141   1     0     3     3  0.679      0.679      0.002687  
   1   142   1     0     4     4  0.683      0.683      0.004030  
   1   143   1U    0     4     4  0.683      0.683      0.006046  
   1   143   2     0     2     2  0.685      0.685      0.001511  
   1   144   1     0     3     3  0.687      0.687      0.002267  
   1   145   1U    0     5     5  0.687      0.687      0.003401  
   1   145   2     0     2     2  0.688      0.688      0.0008502 
   1   146   1     0     1     1  0.689      0.689      0.001275  
   1   147   1     0     4     4  0.691      0.691      0.001913  
   1   148   1     0     2     2  0.694      0.694      0.002869  
   1   149   1     0     3     3  0.698      0.698      0.004304  
   1   150   1U    0     4     4  0.698      0.698      0.006456  
   1   150   2     0     4     4  0.700      0.700      0.001614  
   1   151   1     0     3     3  0.702      0.702      0.002421  
   1   152   1     0     2     2  0.706      0.706      0.003631  
   1   153   1U    0     3     3  0.706      0.706      0.005447  
   1   153   2     0     2     2  0.707      0.707      0.001362  
   1   154   1     0     3     3  0.709      0.709      0.002043  
   1   155   1U    0     5     5  0.709      0.709      0.003064  
   1   155   2     0     2     2  0.710      0.710      0.0007660 
   1   156   1     0     3     3  0.711      0.711      0.001149  
   1   157   1     0     3     3  0.713      0.713      0.001724  
   1   158   1     0     2     2  0.716      0.716      0.002585  
   1   159   1     0     2     2  0.719      0.719      0.003878  
   1   160   1U    0     4     4  0.719      0.719      0.005817  
   1   160   2     0     2     2  0.721      0.721      0.001454  
   1   161   1U    0     4     4  0.721      0.721      0.002181  
   1   161   2     0     2     2  0.721      0.721      0.0005453 
   1   162   1     0     2     2  0.722      0.722      0.0008180 
   1   163   1     0     2     2  0.724      0.724      0.001227  
   1   164   1     0     3     3  0.725      0.725      0.001840  
   1   165   1     0     2     2  0.728      0.728      0.002761  
   1   166   1     0     3     3  0.732      0.732      0.004141  
   1   167   1U    0     4     4  0.732      0.732      0.006212  
   1   167   2     0     3     3  0.734      0.734      0.001553  
   1   168   1U    0     4     4  0.734      0.734      0.002329  
   1   168   2     0     2     2  0.734      0.734      0.0005823 
   1   169   1     0     2     2  0.735      0.735      0.0008735 
   1   170   1     0     2     2  0.737      0.737      0.001310  
   1   171   1     0     1     1  0.739      0.739      0.001965  
   1   172   1     0     2     2  0.742      0.742      0.002948  
   1   173   1U    0     4     4  0.742      0.742      0.004422  
   1   173   2     0     2     2  0.743      0.743      0.001106  
   1   174   1     0     3     3  0.744      0.744      0.001658  
   1   175   1U    0     4     4  0.744      0.744      0.002487  
   1   175   2     0     2     2  0.745      0.745      0.0006219 
   1   176   1     0     3     3  0.746      0.746      0.0009328 
   1   177   1     0     2     2  0.747      0.747      0.001399  
   1   178   1     0     2     2  0.749      0.749      0.002099  
   1   179   1     0     2     2  0.752      0.752      0.003148  
   1   180   1U    0     4     4  0.752      0.752      0.004722  
   1   180   2     0     2     2  0.754      0.754      0.001181  
   1   181   1     0     3     3  0.755      0.755      0.001771  
   1   182   1U    0     4     4  0.755      0.755      0.002656  
   1   182   2     0     2     2  0.756      0.756      0.0006641 
   1   183   1     0     3     3  0.757      0.757      0.0009961 
   1   184   1     0     1     1  0.759      0.759      0.001494  
   1   185   1     0     2     2  0.761      0.761      0.002241  
   1   186   1     0     2     2  0.764      0.764      0.003362  
   1   187   1U    0     4     4  0.764      0.764      0.005043  
   1   187   2     0     2     2  0.765      0.765      0.001261  
   1   188   1U    0     4     4  0.765      0.765      0.001891  
   1   188   2     0     2     2  0.766      0.766      0.0004728 
   1   189   1     0     2     2  0.767      0.767      0.0007091 
   1   190   1     0     4     4  0.768      0.768      0.001064  
   1   191   1     0     2     2  0.769      0.769      0.001596  
   1   192   1     0     1     1  0.772      0.772      0.002393  
   1   193   1     0     3     3  0.775      0.775      0.003590  
   1   194   1U    0     5     5  0.775      0.775      0.005385  
   1   194   2     0     2     2  0.777      0.777      0.001346  
   1   195   1U    0     5     5  0.777      0.777      0.002019  
   1   195   2     0     2     2  0.777      0.777      0.0005048 
   1   196   1     0     3     3  0.778      0.778      0.0007573 
   1   197   1     0     2     2  0.779      0.779      0.001136  
   1   198   1     0     1     1  0.781      0.781      0.001704  
   1   199   1     0     2     2  0.783      0.783      0.002556  
   1   200   1     0     4     4  0.787      0.787      0.003834  
   1   201   1U    0     4     4  0.787      0.787      0.005751  
   1   201   2U    0     4     4  0.787      0.787      0.001438  
   1   201   3     0     4     4  0.787      0.787      0.0003594 
   1   202   1     0     2     2  0.788      0.788      0.0005391 
   1   203   1     0     2     2  0.789      0.789      0.0008087 
   1   204   1     0     1     1  0.790      0.790      0.001213  
   1   205   1     0     1     1  0.792      0.792      0.001820  
   1   206   1     0     2     2  0.795      0.795      0.002729  
   1   207   1U    0     4     4  0.795      0.795      0.004094  
   1   207   2     0     2     2  0.796      0.796      0.001023  
   1   208   1     0     2     2  0.797      0.797      0.001535  
   1   209   1U    0     5     5  0.797      0.797      0.002303  
   1   209   2     0     2     2  0.798      0.798      0.0005757 
   1   210   1     0     3     3  0.799      0.799      0.0008636 
   1   211   1     0     2     2  0.800      0.800      0.001295  
   1   212   1     0     1     1  0.802      0.802      0.001943  
   1   213   1     0     2     2  0.805      0.805      0.002914  
   1   214   1U    0     4     4  0.805      0.805      0.004372  
   1   214   2     0     2     2  0.806      0.806      0.001093  
   1   215   1     0     2     2  0.807      0.807      0.001639  
   1   216   1U    0     3     3  0.807      0.807      0.002459  
   1   216   2     0     3     3  0.808      0.808      0.0006148 
   1   217   1     0     3     3  0.809      0.809      0.0009222 
   1   218   1     0     2     2  0.810      0.810      0.001383  
   1   219   1     0     2     2  0.812      0.812      0.002075  
   1   220   1     0     2     2  0.816      0.816      0.003112  
   1   221   1U    0     2     2  0.816      0.816      0.004668  
   1   221   2     0     2     2  0.817      0.817      0.001167  
   1   222   1     0     4     4  0.818      0.818      0.001751  
   1   223   1U    0     4     4  0.818      0.818      0.002626  
   1   223   2     0     3     3  0.819      0.819      0.0006565 
   1   224   1     0     2     2  0.820      0.820      0.0009848 
   1   225   1     0     2     2  0.822      0.822      0.001477  
   1   226   1     0     2     2  0.824      0.824      0.002216  
   1   227   1     0     3     3  0.827      0.827      0.003324  
   1   228   1U    0     4     4  0.827      0.827      0.004985  
   1   228   2     0     4     4  0.828      0.828      0.001246  
   1   229   1     0     4     4  0.830      0.830      0.001869  
   1   230   1     0     2     2  0.833      0.833      0.002804  
   1   231   1     0     3     3  0.837      0.837      0.004206  
   1   232   1U    0     4     4  0.837      0.837      0.006310  
   1   232   2U    0     5     5  0.837      0.837      0.001577  
   1   232   3     0     4     4  0.838      0.838      0.0003943 
   1   233   1     0     3     3  0.838      0.838      0.0005915 
   1   234   1     0     2     2  0.839      0.839      0.0008873 
   1   235   1     0     2     2  0.840      0.840      0.001331  
   1   236   1     0     2     2  0.842      0.842      0.001996  
   1   237   1     0     2     2  0.845      0.845      0.002995  
   1   238   1U    0     3     3  0.845      0.845      0.004492  
   1   238   2     0     2     2  0.847      0.847      0.001123  
   1   239   1     0     3     3  0.848      0.848      0.001684  
   1   240   1U    0     4     4  0.848      0.848      0.002527  
   1   240   2     0     3     3  0.849      0.849      0.0006317 
   1   241   1     0     1     1  0.850      0.850      0.0009475 
   1   242   1     0     2     2  0.851      0.851      0.001421  
   1   243   1     0     2     2  0.853      0.853      0.002132  
   1   244   1     0     2     2  0.857      0.857      0.003198  
   1   245   1U    0     5     5  0.857      0.857      0.004797  
   1   245   2     0     1     1  0.858      0.858      0.001199  
   1   246   1U    0     4     4  0.858      0.858      0.001799  
   1   246   2     0     3     3  0.858      0.858      0.0004497 
   1   247   1     0     2     2  0.859      0.859      0.0006745 
   1   248   1     0     2     2  0.860      0.860      0.001012  
   1   249   1     0     2     2  0.861      0.861      0.001518  
   1   250   1     0     1     1  0.864      0.864      0.002277  
   1   251   1U    0     4     4  0.864      0.864      0.003415  
   1   251   2     0     1     1  0.865      0.865      0.0008537 
   1   252   1     0     1     1  0.866      0.866      0.001281  
   1   253   1     0     3     3  0.868      0.868      0.001921  
   1   254   1U    0     5     5  0.868      0.868      0.002881  
   1   254   2     0     3     3  0.869      0.869      0.0007203 
   1   255   1     0     2     2  0.870      0.870      0.001080  
   1   256   1     0     2     2  0.871      0.871      0.001621  
   1   257   1     0     2     2  0.874      0.874      0.002431  
   1   258   1     0     4     4  0.877      0.877      0.003647  
   1   259   1U    0     3     3  0.877      0.877      0.005470  
   1   259   2     0     4     4  0.879      0.879      0.001367  
   1   260   1     0     2     2  0.881      0.881      0.002051  
   1   261   1     0     2     2  0.884      0.884      0.003077  
   1   262   1U    0     4     4  0.884      0.884      0.004615  
   1   262   2     0     2     2  0.885      0.885      0.001154  
   1   263   1     0     3     3  0.887      0.887      0.001731  
   1   264   1U    0     4     4  0.887      0.887      0.002596  
   1   264   2     0     3     3  0.887      0.887      0.0006490 
   1   265   1     0     2     2  0.888      0.888      0.0009735 
   1   266   1     0     2     2  0.890      0.890      0.001460  
   1   267   1     0     1     1  0.892      0.892      0.002190  
   1   268   1     0     4     4  0.895      0.895      0.003286  
   1   269   1U    0     4     4  0.895      0.895      0.004928  
   1   269   2     0     3     3  0.896      0.896      0.001232  
   1   270   1U    0     4     4  0.896      0.896      0.001848  
   1   270   2     0     3     3  0.897      0.897      0.0004620 
   1   271   1     0     2     2  0.898      0.898      0.0006931 
   1   272   1     0     2     2  0.899      0.899      0.001040  
   1   273   1     0     1     1  0.900      0.900      0.001559  
   1   274   1     0     1     1  0.903      0.903      0.002339  
   1   275   1     0     4     4  0.906      0.906      0.003509  
   1   276   1U    0     4     4  0.906      0.906      0.005263  
   1   276   2U    0     4     4  0.906      0.906      0.001316  
   1   276   3     0     3     3  0.906      0.906      0.0003289 
   1   277   1     0     2     2  0.907      0.907      0.0004934 
   1   278   1     0     2     2  0.908      0.908      0.0007401 
   1   279   1     0     2     2  0.909      0.909      0.001110  
   1   280   1     0     2     2  0.910      0.910      0.001665  
   1   281   1     0     2     2  0.913      0.913      0.002498  
   1   282   1U    0     4     4  0.913      0.913      0.003747  
   1   282   2     0     1     1  0.914      0.914      0.0009367 
   1   283   1     0     2     2  0.915      0.915      0.001405  
   1   284   1U    0     5     5  0.915      0.915      0.002108  
   1   284   2     0     1     1  0.916      0.916      0.0005269 
   1   285   1     0     4     4  0.917      0.917      0.0007903 
   1   286   1     0     4     4  0.918      0.918      0.001186  
   1   287   1     0     2     2  0.920      0.920      0.001778  
   1   288   1     0     2     2  0.922      0.922      0.002667  
   1   289   1U    0     4     4  0.922      0.922      0.004001  
   1   289   2     0     2     2  0.923      0.923      0.001000  
   1   290   1     0     2     2  0.925      0.925      0.001500  
   1   291   1U    0     5     5  0.925      0.925      0.002251  
   1   291   2     0     2     2  0.925      0.925      0.0005627 
   1   292   1     0     2     2  0.926      0.926      0.0008440 
   1   293   1     0     2     2  0.927      0.927      0.001266  
   1   294   1     0     2     2  0.929      0.929      0.001899  
   1   295   1     0     2     2  0.932      0.932      0.002848  
   1   296   1U    0     2     2  0.932      0.932      0.004273  
   1   296   2     0     2     2  0.933      0.933      0.001068  
   1   297   1     0     2     2  0.935      0.935      0.001602  
   1   298   1U    0     4     4  0.935      0.935      0.002403  
   1   298   2     0     4     4  0.935      0.935      0.0006008 
   1   299   1     0     1     1  0.936      0.936      0.0009013 
   1   300   1     0     3     3  0.938      0.938      0.001352  
   1   301   1     0     2     2  0.940      0.940      0.002028  
   1   302   1     0     2     2  0.943      0.943      0.003042  
   1   303   1U    0     3     3  0.943      0.943      0.004563  
   1   303   2     0     2     2  0.944      0.944      0.001141  
   1   304   1U    0     5     5  0.944      0.944      0.001711  
   1   304   2     0     2     2  0.944      0.944      0.0004277 
   1   305   1     0     2     2  0.945      0.945      0.0006416 
   1   306   1     0     3     3  0.946      0.946      0.0009624 
   1   307   1     0     2     2  0.947      0.947      0.001444  
   1   308   1     0     2     2  0.949      0.949      0.002165  
   1   309   1     0     2     2  0.953      0.953      0.003248  
   1   310   1U    0     2     2  0.953      0.953      0.004872  
   1   310   2     0     2     2  0.954      0.954      0.001218  
   1   311   1U    0     4     4  0.954      0.954      0.001827  
   1   311   2     0     2     2  0.954      0.954      0.0004568 
   1   312   1     0     2     2  0.955      0.955      0.0006852 
   1   313   1     0     3     3  0.956      0.956      0.001028  
   1   314   1     0     2     2  0.958      0.958      0.001542  
   1   315   1     0     3     3  0.960      0.960      0.002312  
   1   316   1     0     6     6  0.963      0.963      0.003469  
   1   317   1U    0     4     4  0.963      0.963      0.003469  
   1   317   2     0     3     3  0.964      0.964      0.0008672 
   1   318   1     0     2     2  0.965      0.965      0.0008672 
   1   319   1     0     3     3  0.966      0.966      0.001301  
   1   320   1     0     2     2  0.968      0.968      0.001951  
   1   321   1     0     3     3  0.971      0.971      0.002927  
   1   322   1U    0     4     4  0.971      0.971      0.004390  
   1   322   2     0     2     2  0.972      0.972      0.001098  
   1   323   1U    0     4     4  0.972      0.972      0.001646  
   1   323   2     0     3     3  0.973      0.973      0.0004116 
   1   324   1     0     2     2  0.973      0.973      0.0006173 
   1   325   1     0     1     1  0.974      0.974      0.0009260 
   1   326   1     0     1     1  0.976      0.976      0.001389  
   1   327   1     0     2     2  0.978      0.978      0.002084  
   1   328   1     0     3     3  0.981      0.981      0.003125  
   1   329   1U    0     4     4  0.981      0.981      0.004688  
   1   329   2     0     2     2  0.982      0.982      0.001172  
   1   330   1U    0     4     4  0.982      0.982      0.001758  
   1   330   2     0     2     2  0.983      0.983      0.0004395 
   1   331   1     0     2     2  0.983      0.983      0.0006592 
   1   332   1     0     3     3  0.984      0.984      0.0009889 
   1   333   1     0     2     2  0.986      0.986      0.001483  
   1   334   1     0     2     2  0.988      0.988      0.002225  
   1   335   1     0     2     2  0.991      0.991      0.003337  
   1   336   1U    0     5     5  0.991      0.991      0.005006  
   1   336   2     0     2     2  0.993      0.993      0.001252  
   1   337   1     0     2     2  0.994      0.994      0.001877  
   1   338   1     0     3     3  0.997      0.997      0.002816  
   1   339   1     0     4     4  1.00       1.00       0.002743  
                          
 THE ANALYSIS HAS COMPLETED SUCCESSFULLY
