 Abaqus/Standard 3DEXPERIENCE R2018x                  DATE 07-Nov-2023 TIME 12:45:15
 SUMMARY OF JOB INFORMATION:
 STEP  INC ATT SEVERE EQUIL TOTAL  TOTAL      STEP       INC OF       DOF    IF
               DISCON ITERS ITERS  TIME/    TIME/LPF    TIME/LPF    MONITOR RIKS
               ITERS               FREQ
   1     1   1     0     1     1  10.0       10.0       10.00     
   1     2   1     0     1     1  20.0       20.0       10.00     
   1     3   1     0     1     1  30.0       30.0       10.00     
   1     4   1     0     1     1  40.0       40.0       10.00     
   1     5   1     0     1     1  50.0       50.0       10.00     
   1     6   1     0     1     1  60.0       60.0       10.00     
   1     7   1     0     1     1  70.0       70.0       10.00     
   1     8   1     0     1     1  80.0       80.0       10.00     
   1     9   1     0     1     1  90.0       90.0       10.00     
   1    10   1     0     1     1  100.       100.       10.00     
   1    11   1     0     1     1  110.       110.       10.00     
   1    12   1     0     1     1  120.       120.       10.00     
   1    13   1     0     1     1  130.       130.       10.00     
   1    14   1     0     1     1  140.       140.       10.00     
   1    15   1     0     1     1  150.       150.       10.00     
   1    16   1     0     1     1  160.       160.       10.00     
   1    17   1     0     1     1  170.       170.       10.00     
   1    18   1     0     1     1  180.       180.       10.00     
   1    19   1     0     1     1  190.       190.       10.00     
   1    20   1     0     1     1  200.       200.       10.00     
   1    21   1     0     1     1  210.       210.       10.00     
   1    22   1     0     1     1  220.       220.       10.00     
   1    23   1     0     1     1  230.       230.       10.00     
   1    24   1     0     1     1  240.       240.       10.00     
   1    25   1     0     1     1  250.       250.       10.00     
   1    26   1     0     1     1  260.       260.       10.00     
   1    27   1     0     1     1  270.       270.       10.00     
   1    28   1     0     1     1  280.       280.       10.00     
   1    29   1     0     1     1  290.       290.       10.00     
   1    30   1     0     1     1  300.       300.       10.00     
   1    31   1     0     1     1  310.       310.       10.00     
   1    32   1     0     1     1  320.       320.       10.00     
   1    33   1     0     1     1  330.       330.       10.00     
   1    34   1     0     1     1  340.       340.       10.00     
   1    35   1     0     1     1  350.       350.       10.00     
   1    36   1     0     1     1  360.       360.       10.00     
   1    37   1     0     1     1  370.       370.       10.00     
   1    38   1     0     1     1  380.       380.       10.00     
   1    39   1     0     1     1  390.       390.       10.00     
   1    40   1     0     1     1  400.       400.       10.00     
   1    41   1     0     1     1  410.       410.       10.00     
   1    42   1     0     1     1  420.       420.       10.00     
   1    43   1     0     1     1  430.       430.       10.00     
   1    44   1     0     1     1  440.       440.       10.00     
   1    45   1     0     1     1  450.       450.       10.00     
   1    46   1     0     1     1  460.       460.       10.00     
   1    47   1     0     1     1  470.       470.       10.00     
   1    48   1     0     1     1  480.       480.       10.00     
   1    49   1     0     1     1  490.       490.       10.00     
   1    50   1     0     1     1  500.       500.       10.00     
   1    51   1     0     1     1  510.       510.       10.00     
   1    52   1     0     1     1  520.       520.       10.00     
   1    53   1     0     1     1  530.       530.       10.00     
   1    54   1     0     1     1  540.       540.       10.00     
   1    55   1     0     1     1  550.       550.       10.00     
   1    56   1     0     1     1  560.       560.       10.00     
   1    57   1     0     1     1  570.       570.       10.00     
   1    58   1     0     1     1  580.       580.       10.00     
   1    59   1     0     1     1  590.       590.       10.00     
   1    60   1     0     1     1  600.       600.       10.00     
                          
 THE ANALYSIS HAS COMPLETED SUCCESSFULLY
