1

   Abaqus 3DEXPERIENCE R2018x                                  Date 07-Nov-2023   Time 12:49:58
   For use by AALTO UNIVERSITY under license from Dassault Systemes or its subsidiary.

 Two-dimensional element                                                         
                                                                                 
 STEP    1     INCREMENT     1     STEP TIME    0.00    


                        S T E P       1     S T A T I C   A N A L Y S I S


                                                                                          

     AUTOMATIC TIME CONTROL WITH -
          A SUGGESTED INITIAL TIME INCREMENT OF                5.000E-03
          AND A TOTAL TIME PERIOD OF                            1.00    
          THE MINIMUM TIME INCREMENT ALLOWED IS                1.000E-10
          THE MAXIMUM TIME INCREMENT ALLOWED IS                1.000E-02

     LINEAR EQUATION SOLVER TYPE         DIRECT SPARSE

     ADAPTIVE AUTOMATIC STABILIZATION WITH 
     INITIAL DISSIPATED ENERGY FRACTION  =   2.000E-04

 CONVERGENCE TOLERANCE PARAMETERS FOR FORCE    
     CRITERION FOR RESIDUAL FORCE     FOR A NONLINEAR PROBLEM          5.000E-03
     CRITERION FOR DISP.    CORRECTION IN A NONLINEAR PROBLEM          1.000E-02
     INITIAL VALUE OF TIME AVERAGE FORCE                               1.000E-02
     AVERAGE FORCE     IS TIME AVERAGE FORCE    
     ALTERNATE CRIT. FOR RESIDUAL FORCE     FOR A NONLINEAR PROBLEM    2.000E-02
     CRITERION FOR ZERO FORCE     RELATIVE TO TIME AVRG. FORCE         1.000E-05
     CRITERION FOR RESIDUAL FORCE     WHEN THERE IS ZERO FLUX          1.000E-05
     CRITERION FOR DISP.    CORRECTION WHEN THERE IS ZERO FLUX         1.000E-03
     CRITERION FOR RESIDUAL FORCE     FOR A LINEAR INCREMENT           1.000E-08
     FIELD CONVERSION RATIO                                             1.00    
     CRITERION FOR ZERO FORCE     REL. TO TIME AVRG. MAX. FORCE        1.000E-05
     CRITERION FOR ZERO DISP.    RELATIVE TO CHARACTERISTIC LENGTH     1.000E-08

     VOLUMETRIC STRAIN COMPATIBILITY TOLERANCE FOR HYBRID SOLIDS       1.000E-05
     AXIAL STRAIN COMPATIBILITY TOLERANCE FOR HYBRID BEAMS             1.000E-05
     TRANS. SHEAR STRAIN COMPATIBILITY TOLERANCE FOR HYBRID BEAMS      1.000E-05
     SOFT CONTACT CONSTRAINT COMPATIBILITY TOLERANCE FOR P>P0          5.000E-03
     SOFT CONTACT CONSTRAINT COMPATIBILITY TOLERANCE FOR P=0.0         0.100    
     CONTACT FORCE ERROR TOLERANCE FOR CONVERT SDI=YES                 1.00    
     DISPLACEMENT COMPATIBILITY TOLERANCE FOR DCOUP ELEMENTS           1.000E-05
     ROTATION COMPATIBILITY TOLERANCE FOR DCOUP ELEMENTS               1.000E-05

 EQUILIBRIUM WILL BE CHECKED FOR SEVERE DISCONTINUITY ITERATIONS

 TIME INCREMENTATION CONTROL PARAMETERS:
     FIRST EQUILIBRIUM ITERATION FOR CONSECUTIVE DIVERGENCE CHECK              4
     EQUILIBRIUM ITERATION AT WHICH LOG. CONVERGENCE RATE CHECK BEGINS         8
     EQUILIBRIUM ITERATION AFTER WHICH ALTERNATE RESIDUAL IS USED              9
     MAXIMUM EQUILIBRIUM ITERATIONS ALLOWED                                   16
     EQUILIBRIUM ITERATION COUNT FOR CUT-BACK IN NEXT INCREMENT               10
     MAXIMUM EQUILIB. ITERS IN TWO INCREMENTS FOR TIME INCREMENT INCREASE      4
     MAXIMUM ITERATIONS FOR SEVERE DISCONTINUITIES                            50
     MAXIMUM ATTEMPTS ALLOWED IN AN INCREMENT                                  5
     MAXIMUM DISCON. ITERS IN TWO INCREMENTS FOR TIME INCREMENT INCREASE      50
     MAXIMUM CONTACT AUGMENTATIONS FOR *SURFACE BEHAVIOR,AUGMENTED LAGRANGE   50
     CUT-BACK FACTOR AFTER DIVERGENCE                                 0.2500    
     CUT-BACK FACTOR FOR TOO SLOW CONVERGENCE                         0.5000    
     CUT-BACK FACTOR AFTER TOO MANY EQUILIBRIUM ITERATIONS            0.7500    
     CUT-BACK FACTOR AFTER TOO MANY SEVERE DISCONTINUITY ITERATIONS   0.2500    
     CUT-BACK FACTOR AFTER PROBLEMS IN ELEMENT ASSEMBLY               0.2500    
     INCREASE FACTOR AFTER TWO INCREMENTS THAT CONVERGE QUICKLY        1.500    
     MAX. TIME INCREMENT INCREASE FACTOR ALLOWED                       1.500    
     MAX. TIME INCREMENT INCREASE FACTOR ALLOWED (DYNAMICS)            1.250    
     MAX. TIME INCREMENT INCREASE FACTOR ALLOWED (DIFFUSION)           2.000    
     MINIMUM TIME INCREMENT RATIO FOR EXTRAPOLATION TO OCCUR          0.1000    
     MAX. RATIO OF TIME INCREMENT TO STABILITY LIMIT                   1.000    
     FRACTION OF STABILITY LIMIT FOR NEW TIME INCREMENT               0.9500    
     TIME INCREMENT INCREASE FACTOR BEFORE A TIME POINT                1.000    
     GLOBAL STABILIZATION CONTROL IS NOT USED

          PRINT OF INCREMENT NUMBER, TIME, ETC., EVERY    1  INCREMENTS

     THE MAXIMUM NUMBER OF INCREMENTS IN THIS STEP IS                     300

     LINEAR EXTRAPOLATION WILL BE USED

     CHARACTERISTIC ELEMENT LENGTH      1.00    

     DETAILS REGARDING ACTUAL SOLUTION WAVEFRONT REQUESTED

     DETAILED OUTPUT OF DIAGNOSTICS TO DATABASE REQUESTED

     PRINT OF INCREMENT NUMBER, TIME, ETC., TO THE MESSAGE FILE EVERY     1  INCREMENTS

     COLLECTING MODEL CONSTRAINT INFORMATION FOR OVERCONSTRAINT CHECKS

     COLLECTING STEP CONSTRAINT INFORMATION FOR OVERCONSTRAINT CHECKS


  INCREMENT     1 STARTS. ATTEMPT NUMBER  1, TIME INCREMENT  5.000E-03

  NUMBER OF EQUATIONS =        44     NUMBER OF RHS =    1
  NUMBER OF FLOATING PT. OPERATIONS =  4.20E+03

     CHECK POINT   START OF SOLVER    

     CHECK POINT  END OF SOLVER       

       ELAPSED USER TIME (SEC)      =   0.0000    
       ELAPSED SYSTEM TIME (SEC)    =   0.0000    
       ELAPSED TOTAL CPU TIME (SEC) =   0.0000    
       ELAPSED WALLCLOCK TIME (SEC) =          0

               CONVERGENCE CHECKS FOR EQUILIBRIUM ITERATION     1


 AVERAGE FORCE                       26.8       TIME AVG. FORCE        26.8    
 LARGEST RESIDUAL FORCE            -2.416E-13   AT NODE         21   DOF  2
 LARGEST INCREMENT OF DISP.         4.500E-04   AT NODE         23   DOF  2
 LARGEST CORRECTION TO DISP.        4.500E-04   AT NODE         23   DOF  2
          THE FORCE     EQUILIBRIUM RESPONSE WAS LINEAR IN THIS INCREMENT

 ITERATION SUMMARY FOR THE INCREMENT:   1 TOTAL ITERATIONS, OF WHICH
   0 ARE SEVERE DISCONTINUITY ITERATIONS AND  1 ARE EQUILIBRIUM ITERATIONS.

 TIME INCREMENT COMPLETED  5.000E-03,  FRACTION OF STEP COMPLETED  5.000E-03
 STEP TIME COMPLETED       5.000E-03,  TOTAL TIME COMPLETED        5.000E-03


  INCREMENT     2 STARTS. ATTEMPT NUMBER  1, TIME INCREMENT  5.000E-03


     ***THE INITIAL STATIC STABILIZATION DAMPING FACTOR HAS BEEN CALCULATED.
     ITS STARTING VALUE OF   1.5966     WILL BE ADJUSTED BASED ON THE 
     CONVERGENCE HISTORY AND ACCURACY TOLERANCE THROUGH THE STEP 

  NUMBER OF EQUATIONS =        44     NUMBER OF RHS =    1
  NUMBER OF FLOATING PT. OPERATIONS =  4.20E+03

     CHECK POINT   START OF SOLVER    

     CHECK POINT  END OF SOLVER       

       ELAPSED USER TIME (SEC)      =   0.0000    
       ELAPSED SYSTEM TIME (SEC)    =   0.0000    
       ELAPSED TOTAL CPU TIME (SEC) =   0.0000    
       ELAPSED WALLCLOCK TIME (SEC) =          0

               CONVERGENCE CHECKS FOR EQUILIBRIUM ITERATION     1


 AVERAGE FORCE                       56.5       TIME AVG. FORCE        41.6    
 LARGEST RESIDUAL FORCE             0.227       AT NODE         21   DOF  2
 LARGEST INCREMENT OF DISP.         4.500E-04   AT NODE         23   DOF  2
 LARGEST CORRECTION TO DISP.        3.995E-05   AT NODE         15   DOF  2
          FORCE     EQUILIBRIUM NOT ACHIEVED WITHIN TOLERANCE.

  NUMBER OF EQUATIONS =        44     NUMBER OF RHS =    1
  NUMBER OF FLOATING PT. OPERATIONS =  4.20E+03

     CHECK POINT   START OF SOLVER    

     CHECK POINT  END OF SOLVER       

       ELAPSED USER TIME (SEC)      =   0.0000    
       ELAPSED SYSTEM TIME (SEC)    =   0.0000    
       ELAPSED TOTAL CPU TIME (SEC) =   0.0000    
       ELAPSED WALLCLOCK TIME (SEC) =          0

               CONVERGENCE CHECKS FOR EQUILIBRIUM ITERATION     2


 AVERAGE FORCE                       56.5       TIME AVG. FORCE        41.6    
 LARGEST RESIDUAL FORCE             2.231E-03   AT NODE         21   DOF  2
 LARGEST INCREMENT OF DISP.         4.500E-04   AT NODE         23   DOF  2
 LARGEST CORRECTION TO DISP.        4.941E-07   AT NODE         19   DOF  2
          THE FORCE     EQUILIBRIUM EQUATIONS HAVE CONVERGED
          TIME INCREMENT MAY NOW INCREASE TO    7.500E-03

 ITERATION SUMMARY FOR THE INCREMENT:   2 TOTAL ITERATIONS, OF WHICH
   0 ARE SEVERE DISCONTINUITY ITERATIONS AND  2 ARE EQUILIBRIUM ITERATIONS.

 TIME INCREMENT COMPLETED  5.000E-03,  FRACTION OF STEP COMPLETED  1.000E-02
 STEP TIME COMPLETED       1.000E-02,  TOTAL TIME COMPLETED        1.000E-02


  INCREMENT     3 STARTS. ATTEMPT NUMBER  1, TIME INCREMENT  7.500E-03

  NUMBER OF EQUATIONS =        44     NUMBER OF RHS =    1
  NUMBER OF FLOATING PT. OPERATIONS =  4.20E+03

     CHECK POINT   START OF SOLVER    

     CHECK POINT  END OF SOLVER       

       ELAPSED USER TIME (SEC)      =   0.0000    
       ELAPSED SYSTEM TIME (SEC)    =   0.0000    
       ELAPSED TOTAL CPU TIME (SEC) =   0.0000    
       ELAPSED WALLCLOCK TIME (SEC) =          0

               CONVERGENCE CHECKS FOR EQUILIBRIUM ITERATION     1


 AVERAGE FORCE                       98.9       TIME AVG. FORCE        60.7    
 LARGEST RESIDUAL FORCE             1.990E-13   AT NODE         11   DOF  2
 LARGEST INCREMENT OF DISP.         6.750E-04   AT NODE         23   DOF  2
 LARGEST CORRECTION TO DISP.       -2.579E-05   AT NODE         15   DOF  2
          THE FORCE     EQUILIBRIUM RESPONSE WAS LINEAR IN THIS INCREMENT
          TIME INCREMENT MAY NOW INCREASE TO    1.000E-02

 ITERATION SUMMARY FOR THE INCREMENT:   1 TOTAL ITERATIONS, OF WHICH
   0 ARE SEVERE DISCONTINUITY ITERATIONS AND  1 ARE EQUILIBRIUM ITERATIONS.

 TIME INCREMENT COMPLETED  7.500E-03,  FRACTION OF STEP COMPLETED  1.750E-02
 STEP TIME COMPLETED       1.750E-02,  TOTAL TIME COMPLETED        1.750E-02


  INCREMENT     4 STARTS. ATTEMPT NUMBER  1, TIME INCREMENT  1.000E-02

  NUMBER OF EQUATIONS =        44     NUMBER OF RHS =    1
  NUMBER OF FLOATING PT. OPERATIONS =  4.20E+03

     CHECK POINT   START OF SOLVER    

     CHECK POINT  END OF SOLVER       

       ELAPSED USER TIME (SEC)      =   0.0000    
       ELAPSED SYSTEM TIME (SEC)    =   0.0000    
       ELAPSED TOTAL CPU TIME (SEC) =   0.0000    
       ELAPSED WALLCLOCK TIME (SEC) =          0

               CONVERGENCE CHECKS FOR EQUILIBRIUM ITERATION     1


 AVERAGE FORCE                       155.       TIME AVG. FORCE        84.4    
 LARGEST RESIDUAL FORCE            -2.842E-13   AT NODE         20   DOF  2
 LARGEST INCREMENT OF DISP.         9.000E-04   AT NODE         23   DOF  2
 LARGEST CORRECTION TO DISP.       -5.071E-07   AT NODE         11   DOF  2
          THE FORCE     EQUILIBRIUM RESPONSE WAS LINEAR IN THIS INCREMENT

 ITERATION SUMMARY FOR THE INCREMENT:   1 TOTAL ITERATIONS, OF WHICH
   0 ARE SEVERE DISCONTINUITY ITERATIONS AND  1 ARE EQUILIBRIUM ITERATIONS.

 TIME INCREMENT COMPLETED  1.000E-02,  FRACTION OF STEP COMPLETED  2.750E-02
 STEP TIME COMPLETED       2.750E-02,  TOTAL TIME COMPLETED        2.750E-02


  INCREMENT     5 STARTS. ATTEMPT NUMBER  1, TIME INCREMENT  1.000E-02

  NUMBER OF EQUATIONS =        44     NUMBER OF RHS =    1
  NUMBER OF FLOATING PT. OPERATIONS =  4.20E+03

     CHECK POINT   START OF SOLVER    

     CHECK POINT  END OF SOLVER       

       ELAPSED USER TIME (SEC)      =   0.0000    
       ELAPSED SYSTEM TIME (SEC)    =   0.0000    
       ELAPSED TOTAL CPU TIME (SEC) =   0.0000    
       ELAPSED WALLCLOCK TIME (SEC) =          0

               CONVERGENCE CHECKS FOR EQUILIBRIUM ITERATION     1


 AVERAGE FORCE                       212.       TIME AVG. FORCE        110.    
 LARGEST RESIDUAL FORCE             1.705E-13   AT NODE         15   DOF  2
 LARGEST INCREMENT OF DISP.         9.000E-04   AT NODE         23   DOF  2
 LARGEST CORRECTION TO DISP.       -1.153E-08   AT NODE         11   DOF  2
          THE FORCE     EQUILIBRIUM RESPONSE WAS LINEAR IN THIS INCREMENT

 ITERATION SUMMARY FOR THE INCREMENT:   1 TOTAL ITERATIONS, OF WHICH
   0 ARE SEVERE DISCONTINUITY ITERATIONS AND  1 ARE EQUILIBRIUM ITERATIONS.

 TIME INCREMENT COMPLETED  1.000E-02,  FRACTION OF STEP COMPLETED  3.750E-02
 STEP TIME COMPLETED       3.750E-02,  TOTAL TIME COMPLETED        3.750E-02


  INCREMENT     6 STARTS. ATTEMPT NUMBER  1, TIME INCREMENT  1.000E-02

  NUMBER OF EQUATIONS =        44     NUMBER OF RHS =    1
  NUMBER OF FLOATING PT. OPERATIONS =  4.20E+03

     CHECK POINT   START OF SOLVER    

     CHECK POINT  END OF SOLVER       

       ELAPSED USER TIME (SEC)      =   0.0000    
       ELAPSED SYSTEM TIME (SEC)    =   0.0000    
       ELAPSED TOTAL CPU TIME (SEC) =   0.0000    
       ELAPSED WALLCLOCK TIME (SEC) =          0

               CONVERGENCE CHECKS FOR EQUILIBRIUM ITERATION     1


 AVERAGE FORCE                       269.       TIME AVG. FORCE        136.    
 LARGEST RESIDUAL FORCE             3.411E-13   AT NODE         20   DOF  2
 LARGEST INCREMENT OF DISP.         9.000E-04   AT NODE         23   DOF  2
 LARGEST CORRECTION TO DISP.       -1.442E-09   AT NODE         11   DOF  2
          THE FORCE     EQUILIBRIUM RESPONSE WAS LINEAR IN THIS INCREMENT

 ITERATION SUMMARY FOR THE INCREMENT:   1 TOTAL ITERATIONS, OF WHICH
   0 ARE SEVERE DISCONTINUITY ITERATIONS AND  1 ARE EQUILIBRIUM ITERATIONS.

 TIME INCREMENT COMPLETED  1.000E-02,  FRACTION OF STEP COMPLETED  4.750E-02
 STEP TIME COMPLETED       4.750E-02,  TOTAL TIME COMPLETED        4.750E-02


  INCREMENT     7 STARTS. ATTEMPT NUMBER  1, TIME INCREMENT  1.000E-02

  NUMBER OF EQUATIONS =        44     NUMBER OF RHS =    1
  NUMBER OF FLOATING PT. OPERATIONS =  4.20E+03

     CHECK POINT   START OF SOLVER    

     CHECK POINT  END OF SOLVER       

       ELAPSED USER TIME (SEC)      =   0.0000    
       ELAPSED SYSTEM TIME (SEC)    =   0.0000    
       ELAPSED TOTAL CPU TIME (SEC) =   0.0000    
       ELAPSED WALLCLOCK TIME (SEC) =          0

               CONVERGENCE CHECKS FOR EQUILIBRIUM ITERATION     1


 AVERAGE FORCE                       325.       TIME AVG. FORCE        163.    
 LARGEST RESIDUAL FORCE            -4.547E-13   AT NODE         12   DOF  2
 LARGEST INCREMENT OF DISP.         9.000E-04   AT NODE         23   DOF  2
 LARGEST CORRECTION TO DISP.       -6.813E-10   AT NODE         11   DOF  2
          THE FORCE     EQUILIBRIUM RESPONSE WAS LINEAR IN THIS INCREMENT

 ITERATION SUMMARY FOR THE INCREMENT:   1 TOTAL ITERATIONS, OF WHICH
   0 ARE SEVERE DISCONTINUITY ITERATIONS AND  1 ARE EQUILIBRIUM ITERATIONS.

 TIME INCREMENT COMPLETED  1.000E-02,  FRACTION OF STEP COMPLETED  5.750E-02
 STEP TIME COMPLETED       5.750E-02,  TOTAL TIME COMPLETED        5.750E-02


  INCREMENT     8 STARTS. ATTEMPT NUMBER  1, TIME INCREMENT  1.000E-02

  NUMBER OF EQUATIONS =        44     NUMBER OF RHS =    1
  NUMBER OF FLOATING PT. OPERATIONS =  4.20E+03

     CHECK POINT   START OF SOLVER    

     CHECK POINT  END OF SOLVER       

       ELAPSED USER TIME (SEC)      =   0.0000    
       ELAPSED SYSTEM TIME (SEC)    =   0.0000    
       ELAPSED TOTAL CPU TIME (SEC) =   0.0000    
       ELAPSED WALLCLOCK TIME (SEC) =          0

               CONVERGENCE CHECKS FOR EQUILIBRIUM ITERATION     1


 AVERAGE FORCE                       382.       TIME AVG. FORCE        191.    
 LARGEST RESIDUAL FORCE             4.547E-13   AT NODE         12   DOF  2
 LARGEST INCREMENT OF DISP.         9.000E-04   AT NODE         23   DOF  2
 LARGEST CORRECTION TO DISP.       -5.433E-10   AT NODE         11   DOF  2
          THE FORCE     EQUILIBRIUM RESPONSE WAS LINEAR IN THIS INCREMENT

 ITERATION SUMMARY FOR THE INCREMENT:   1 TOTAL ITERATIONS, OF WHICH
   0 ARE SEVERE DISCONTINUITY ITERATIONS AND  1 ARE EQUILIBRIUM ITERATIONS.

 TIME INCREMENT COMPLETED  1.000E-02,  FRACTION OF STEP COMPLETED  6.750E-02
 STEP TIME COMPLETED       6.750E-02,  TOTAL TIME COMPLETED        6.750E-02


  INCREMENT     9 STARTS. ATTEMPT NUMBER  1, TIME INCREMENT  1.000E-02

  NUMBER OF EQUATIONS =        44     NUMBER OF RHS =    1
  NUMBER OF FLOATING PT. OPERATIONS =  4.20E+03

     CHECK POINT   START OF SOLVER    

     CHECK POINT  END OF SOLVER       

       ELAPSED USER TIME (SEC)      =   0.0000    
       ELAPSED SYSTEM TIME (SEC)    =   0.0000    
       ELAPSED TOTAL CPU TIME (SEC) =   0.0000    
       ELAPSED WALLCLOCK TIME (SEC) =          0

               CONVERGENCE CHECKS FOR EQUILIBRIUM ITERATION     1


 AVERAGE FORCE                       438.       TIME AVG. FORCE        218.    
 LARGEST RESIDUAL FORCE             4.547E-13   AT NODE          4   DOF  2
 LARGEST INCREMENT OF DISP.         9.000E-04   AT NODE         23   DOF  2
 LARGEST CORRECTION TO DISP.       -5.212E-10   AT NODE         13   DOF  2
          THE FORCE     EQUILIBRIUM RESPONSE WAS LINEAR IN THIS INCREMENT

 ITERATION SUMMARY FOR THE INCREMENT:   1 TOTAL ITERATIONS, OF WHICH
   0 ARE SEVERE DISCONTINUITY ITERATIONS AND  1 ARE EQUILIBRIUM ITERATIONS.

 TIME INCREMENT COMPLETED  1.000E-02,  FRACTION OF STEP COMPLETED  7.750E-02
 STEP TIME COMPLETED       7.750E-02,  TOTAL TIME COMPLETED        7.750E-02


  INCREMENT    10 STARTS. ATTEMPT NUMBER  1, TIME INCREMENT  1.000E-02

  NUMBER OF EQUATIONS =        44     NUMBER OF RHS =    1
  NUMBER OF FLOATING PT. OPERATIONS =  4.20E+03

     CHECK POINT   START OF SOLVER    

     CHECK POINT  END OF SOLVER       

       ELAPSED USER TIME (SEC)      =   0.0000    
       ELAPSED SYSTEM TIME (SEC)    =   0.0000    
       ELAPSED TOTAL CPU TIME (SEC) =   0.0000    
       ELAPSED WALLCLOCK TIME (SEC) =          0

               CONVERGENCE CHECKS FOR EQUILIBRIUM ITERATION     1


 AVERAGE FORCE                       495.       TIME AVG. FORCE        246.    
 LARGEST RESIDUAL FORCE            -3.411E-13   AT NODE          7   DOF  2
 LARGEST INCREMENT OF DISP.         9.000E-04   AT NODE         23   DOF  2
 LARGEST CORRECTION TO DISP.       -5.209E-10   AT NODE         13   DOF  2
          THE FORCE     EQUILIBRIUM RESPONSE WAS LINEAR IN THIS INCREMENT

 ITERATION SUMMARY FOR THE INCREMENT:   1 TOTAL ITERATIONS, OF WHICH
   0 ARE SEVERE DISCONTINUITY ITERATIONS AND  1 ARE EQUILIBRIUM ITERATIONS.

 TIME INCREMENT COMPLETED  1.000E-02,  FRACTION OF STEP COMPLETED  8.750E-02
 STEP TIME COMPLETED       8.750E-02,  TOTAL TIME COMPLETED        8.750E-02


  INCREMENT    11 STARTS. ATTEMPT NUMBER  1, TIME INCREMENT  1.000E-02

  NUMBER OF EQUATIONS =        44     NUMBER OF RHS =    1
  NUMBER OF FLOATING PT. OPERATIONS =  4.20E+03

     CHECK POINT   START OF SOLVER    

     CHECK POINT  END OF SOLVER       

       ELAPSED USER TIME (SEC)      =   0.0000    
       ELAPSED SYSTEM TIME (SEC)    =   0.0000    
       ELAPSED TOTAL CPU TIME (SEC) =   0.0000    
       ELAPSED WALLCLOCK TIME (SEC) =          0

               CONVERGENCE CHECKS FOR EQUILIBRIUM ITERATION     1


 AVERAGE FORCE                       552.       TIME AVG. FORCE        274.    
 LARGEST RESIDUAL FORCE            -9.095E-13   AT NODE          4   DOF  2
 LARGEST INCREMENT OF DISP.         9.000E-04   AT NODE         23   DOF  2
 LARGEST CORRECTION TO DISP.       -5.166E-10   AT NODE         13   DOF  2
          THE FORCE     EQUILIBRIUM RESPONSE WAS LINEAR IN THIS INCREMENT

 ITERATION SUMMARY FOR THE INCREMENT:   1 TOTAL ITERATIONS, OF WHICH
   0 ARE SEVERE DISCONTINUITY ITERATIONS AND  1 ARE EQUILIBRIUM ITERATIONS.

 TIME INCREMENT COMPLETED  1.000E-02,  FRACTION OF STEP COMPLETED  9.750E-02
 STEP TIME COMPLETED       9.750E-02,  TOTAL TIME COMPLETED        9.750E-02


  INCREMENT    12 STARTS. ATTEMPT NUMBER  1, TIME INCREMENT  1.000E-02

  NUMBER OF EQUATIONS =        44     NUMBER OF RHS =    1
  NUMBER OF FLOATING PT. OPERATIONS =  4.20E+03

     CHECK POINT   START OF SOLVER    

     CHECK POINT  END OF SOLVER       

       ELAPSED USER TIME (SEC)      =   0.0000    
       ELAPSED SYSTEM TIME (SEC)    =   0.0000    
       ELAPSED TOTAL CPU TIME (SEC) =   0.0000    
       ELAPSED WALLCLOCK TIME (SEC) =          0

               CONVERGENCE CHECKS FOR EQUILIBRIUM ITERATION     1


 AVERAGE FORCE                       623.       TIME AVG. FORCE        303.    
 LARGEST RESIDUAL FORCE            -6.821E-13   AT NODE         11   DOF  2
 LARGEST INCREMENT OF DISP.         9.000E-04   AT NODE         23   DOF  2
 LARGEST CORRECTION TO DISP.       -5.117E-10   AT NODE         13   DOF  2
          THE FORCE     EQUILIBRIUM RESPONSE WAS LINEAR IN THIS INCREMENT

 ITERATION SUMMARY FOR THE INCREMENT:   1 TOTAL ITERATIONS, OF WHICH
   0 ARE SEVERE DISCONTINUITY ITERATIONS AND  1 ARE EQUILIBRIUM ITERATIONS.

 TIME INCREMENT COMPLETED  1.000E-02,  FRACTION OF STEP COMPLETED  0.107    
 STEP TIME COMPLETED       0.107    ,  TOTAL TIME COMPLETED        0.107    


  INCREMENT    13 STARTS. ATTEMPT NUMBER  1, TIME INCREMENT  1.000E-02

  NUMBER OF EQUATIONS =        44     NUMBER OF RHS =    1
  NUMBER OF FLOATING PT. OPERATIONS =  4.20E+03

     CHECK POINT   START OF SOLVER    

     CHECK POINT  END OF SOLVER       

       ELAPSED USER TIME (SEC)      =   0.0000    
       ELAPSED SYSTEM TIME (SEC)    =   0.0000    
       ELAPSED TOTAL CPU TIME (SEC) =   0.0000    
       ELAPSED WALLCLOCK TIME (SEC) =          0

               CONVERGENCE CHECKS FOR EQUILIBRIUM ITERATION     1


 AVERAGE FORCE                       681.       TIME AVG. FORCE        332.    
 LARGEST RESIDUAL FORCE            -1.364E-12   AT NODE          4   DOF  2
 LARGEST INCREMENT OF DISP.         9.000E-04   AT NODE         23   DOF  2
 LARGEST CORRECTION TO DISP.       -5.066E-10   AT NODE         13   DOF  2
          THE FORCE     EQUILIBRIUM RESPONSE WAS LINEAR IN THIS INCREMENT

 ITERATION SUMMARY FOR THE INCREMENT:   1 TOTAL ITERATIONS, OF WHICH
   0 ARE SEVERE DISCONTINUITY ITERATIONS AND  1 ARE EQUILIBRIUM ITERATIONS.

 TIME INCREMENT COMPLETED  1.000E-02,  FRACTION OF STEP COMPLETED  0.117    
 STEP TIME COMPLETED       0.117    ,  TOTAL TIME COMPLETED        0.117    


  INCREMENT    14 STARTS. ATTEMPT NUMBER  1, TIME INCREMENT  1.000E-02

  NUMBER OF EQUATIONS =        44     NUMBER OF RHS =    1
  NUMBER OF FLOATING PT. OPERATIONS =  4.20E+03

     CHECK POINT   START OF SOLVER    

     CHECK POINT  END OF SOLVER       

       ELAPSED USER TIME (SEC)      =   0.0000    
       ELAPSED SYSTEM TIME (SEC)    =   0.0000    
       ELAPSED TOTAL CPU TIME (SEC) =   0.0000    
       ELAPSED WALLCLOCK TIME (SEC) =          0

               CONVERGENCE CHECKS FOR EQUILIBRIUM ITERATION     1


 AVERAGE FORCE                       739.       TIME AVG. FORCE        361.    
 LARGEST RESIDUAL FORCE             6.821E-13   AT NODE          6   DOF  2
 LARGEST INCREMENT OF DISP.         9.000E-04   AT NODE         23   DOF  2
 LARGEST CORRECTION TO DISP.       -5.015E-10   AT NODE         13   DOF  2
          THE FORCE     EQUILIBRIUM RESPONSE WAS LINEAR IN THIS INCREMENT

 ITERATION SUMMARY FOR THE INCREMENT:   1 TOTAL ITERATIONS, OF WHICH
   0 ARE SEVERE DISCONTINUITY ITERATIONS AND  1 ARE EQUILIBRIUM ITERATIONS.

 TIME INCREMENT COMPLETED  1.000E-02,  FRACTION OF STEP COMPLETED  0.127    
 STEP TIME COMPLETED       0.127    ,  TOTAL TIME COMPLETED        0.127    


  INCREMENT    15 STARTS. ATTEMPT NUMBER  1, TIME INCREMENT  1.000E-02

  NUMBER OF EQUATIONS =        44     NUMBER OF RHS =    1
  NUMBER OF FLOATING PT. OPERATIONS =  4.20E+03

     CHECK POINT   START OF SOLVER    

     CHECK POINT  END OF SOLVER       

       ELAPSED USER TIME (SEC)      =   0.0000    
       ELAPSED SYSTEM TIME (SEC)    =   0.0000    
       ELAPSED TOTAL CPU TIME (SEC) =   0.0000    
       ELAPSED WALLCLOCK TIME (SEC) =          0

               CONVERGENCE CHECKS FOR EQUILIBRIUM ITERATION     1


 AVERAGE FORCE                       817.       TIME AVG. FORCE        391.    
 LARGEST RESIDUAL FORCE            -9.095E-13   AT NODE         22   DOF  2
 LARGEST INCREMENT OF DISP.         9.000E-04   AT NODE         23   DOF  2
 LARGEST CORRECTION TO DISP.       -4.965E-10   AT NODE         13   DOF  2
          THE FORCE     EQUILIBRIUM RESPONSE WAS LINEAR IN THIS INCREMENT

 ITERATION SUMMARY FOR THE INCREMENT:   1 TOTAL ITERATIONS, OF WHICH
   0 ARE SEVERE DISCONTINUITY ITERATIONS AND  1 ARE EQUILIBRIUM ITERATIONS.

 TIME INCREMENT COMPLETED  1.000E-02,  FRACTION OF STEP COMPLETED  0.137    
 STEP TIME COMPLETED       0.137    ,  TOTAL TIME COMPLETED        0.137    


  INCREMENT    16 STARTS. ATTEMPT NUMBER  1, TIME INCREMENT  1.000E-02

  NUMBER OF EQUATIONS =        44     NUMBER OF RHS =    1
  NUMBER OF FLOATING PT. OPERATIONS =  4.20E+03

     CHECK POINT   START OF SOLVER    

     CHECK POINT  END OF SOLVER       

       ELAPSED USER TIME (SEC)      =   0.0000    
       ELAPSED SYSTEM TIME (SEC)    =   0.0000    
       ELAPSED TOTAL CPU TIME (SEC) =   0.0000    
       ELAPSED WALLCLOCK TIME (SEC) =          0

               CONVERGENCE CHECKS FOR EQUILIBRIUM ITERATION     1


 AVERAGE FORCE                       899.       TIME AVG. FORCE        423.    
 LARGEST RESIDUAL FORCE             9.095E-13   AT NODE          4   DOF  2
 LARGEST INCREMENT OF DISP.         9.000E-04   AT NODE         23   DOF  2
 LARGEST CORRECTION TO DISP.       -4.915E-10   AT NODE         13   DOF  2
          THE FORCE     EQUILIBRIUM RESPONSE WAS LINEAR IN THIS INCREMENT

 ITERATION SUMMARY FOR THE INCREMENT:   1 TOTAL ITERATIONS, OF WHICH
   0 ARE SEVERE DISCONTINUITY ITERATIONS AND  1 ARE EQUILIBRIUM ITERATIONS.

 TIME INCREMENT COMPLETED  1.000E-02,  FRACTION OF STEP COMPLETED  0.147    
 STEP TIME COMPLETED       0.147    ,  TOTAL TIME COMPLETED        0.147    


  INCREMENT    17 STARTS. ATTEMPT NUMBER  1, TIME INCREMENT  1.000E-02

  NUMBER OF EQUATIONS =        44     NUMBER OF RHS =    1
  NUMBER OF FLOATING PT. OPERATIONS =  4.20E+03

     CHECK POINT   START OF SOLVER    

     CHECK POINT  END OF SOLVER       

       ELAPSED USER TIME (SEC)      =   0.0000    
       ELAPSED SYSTEM TIME (SEC)    =   0.0000    
       ELAPSED TOTAL CPU TIME (SEC) =   0.0000    
       ELAPSED WALLCLOCK TIME (SEC) =          0

               CONVERGENCE CHECKS FOR EQUILIBRIUM ITERATION     1


 AVERAGE FORCE                       985.       TIME AVG. FORCE        456.    
 LARGEST RESIDUAL FORCE             9.095E-13   AT NODE          4   DOF  2
 LARGEST INCREMENT OF DISP.         9.000E-04   AT NODE         23   DOF  2
 LARGEST CORRECTION TO DISP.       -4.866E-10   AT NODE         13   DOF  2
          THE FORCE     EQUILIBRIUM RESPONSE WAS LINEAR IN THIS INCREMENT

 ITERATION SUMMARY FOR THE INCREMENT:   1 TOTAL ITERATIONS, OF WHICH
   0 ARE SEVERE DISCONTINUITY ITERATIONS AND  1 ARE EQUILIBRIUM ITERATIONS.

 TIME INCREMENT COMPLETED  1.000E-02,  FRACTION OF STEP COMPLETED  0.158    
 STEP TIME COMPLETED       0.158    ,  TOTAL TIME COMPLETED        0.158    


  INCREMENT    18 STARTS. ATTEMPT NUMBER  1, TIME INCREMENT  1.000E-02

  NUMBER OF EQUATIONS =        44     NUMBER OF RHS =    1
  NUMBER OF FLOATING PT. OPERATIONS =  4.20E+03

     CHECK POINT   START OF SOLVER    

     CHECK POINT  END OF SOLVER       

       ELAPSED USER TIME (SEC)      =   0.0000    
       ELAPSED SYSTEM TIME (SEC)    =   0.0000    
       ELAPSED TOTAL CPU TIME (SEC) =   0.0000    
       ELAPSED WALLCLOCK TIME (SEC) =          0

               CONVERGENCE CHECKS FOR EQUILIBRIUM ITERATION     1


 AVERAGE FORCE                      1.076E+03   TIME AVG. FORCE        490.    
 LARGEST RESIDUAL FORCE             1.137E-12   AT NODE          7   DOF  2
 LARGEST INCREMENT OF DISP.         9.000E-04   AT NODE         23   DOF  2
 LARGEST CORRECTION TO DISP.       -4.817E-10   AT NODE         13   DOF  2
          THE FORCE     EQUILIBRIUM RESPONSE WAS LINEAR IN THIS INCREMENT

 ITERATION SUMMARY FOR THE INCREMENT:   1 TOTAL ITERATIONS, OF WHICH
   0 ARE SEVERE DISCONTINUITY ITERATIONS AND  1 ARE EQUILIBRIUM ITERATIONS.

 TIME INCREMENT COMPLETED  1.000E-02,  FRACTION OF STEP COMPLETED  0.168    
 STEP TIME COMPLETED       0.168    ,  TOTAL TIME COMPLETED        0.168    


  INCREMENT    19 STARTS. ATTEMPT NUMBER  1, TIME INCREMENT  1.000E-02

  NUMBER OF EQUATIONS =        44     NUMBER OF RHS =    1
  NUMBER OF FLOATING PT. OPERATIONS =  4.20E+03

     CHECK POINT   START OF SOLVER    

     CHECK POINT  END OF SOLVER       

       ELAPSED USER TIME (SEC)      =   0.0000    
       ELAPSED SYSTEM TIME (SEC)    =   0.0000    
       ELAPSED TOTAL CPU TIME (SEC) =   0.0000    
       ELAPSED WALLCLOCK TIME (SEC) =          0

               CONVERGENCE CHECKS FOR EQUILIBRIUM ITERATION     1


 AVERAGE FORCE                      1.205E+03   TIME AVG. FORCE        528.    
 LARGEST RESIDUAL FORCE             9.095E-13   AT NODE         18   DOF  2
 LARGEST INCREMENT OF DISP.         9.000E-04   AT NODE         23   DOF  2
 LARGEST CORRECTION TO DISP.       -4.769E-10   AT NODE         13   DOF  2
          THE FORCE     EQUILIBRIUM RESPONSE WAS LINEAR IN THIS INCREMENT

 ITERATION SUMMARY FOR THE INCREMENT:   1 TOTAL ITERATIONS, OF WHICH
   0 ARE SEVERE DISCONTINUITY ITERATIONS AND  1 ARE EQUILIBRIUM ITERATIONS.

 TIME INCREMENT COMPLETED  1.000E-02,  FRACTION OF STEP COMPLETED  0.178    
 STEP TIME COMPLETED       0.178    ,  TOTAL TIME COMPLETED        0.178    


  INCREMENT    20 STARTS. ATTEMPT NUMBER  1, TIME INCREMENT  1.000E-02

  NUMBER OF EQUATIONS =        44     NUMBER OF RHS =    1
  NUMBER OF FLOATING PT. OPERATIONS =  4.20E+03

     CHECK POINT   START OF SOLVER    

     CHECK POINT  END OF SOLVER       

       ELAPSED USER TIME (SEC)      =   0.0000    
       ELAPSED SYSTEM TIME (SEC)    =   0.0000    
       ELAPSED TOTAL CPU TIME (SEC) =   0.0000    
       ELAPSED WALLCLOCK TIME (SEC) =          0

               CONVERGENCE CHECKS FOR EQUILIBRIUM ITERATION     1


 AVERAGE FORCE                      1.291E+03   TIME AVG. FORCE        566.    
 LARGEST RESIDUAL FORCE             9.095E-13   AT NODE         13   DOF  2
 LARGEST INCREMENT OF DISP.         9.000E-04   AT NODE         23   DOF  2
 LARGEST CORRECTION TO DISP.       -4.722E-10   AT NODE         13   DOF  2
          THE FORCE     EQUILIBRIUM RESPONSE WAS LINEAR IN THIS INCREMENT

 ITERATION SUMMARY FOR THE INCREMENT:   1 TOTAL ITERATIONS, OF WHICH
   0 ARE SEVERE DISCONTINUITY ITERATIONS AND  1 ARE EQUILIBRIUM ITERATIONS.

 TIME INCREMENT COMPLETED  1.000E-02,  FRACTION OF STEP COMPLETED  0.188    
 STEP TIME COMPLETED       0.188    ,  TOTAL TIME COMPLETED        0.188    


  INCREMENT    21 STARTS. ATTEMPT NUMBER  1, TIME INCREMENT  1.000E-02

  NUMBER OF EQUATIONS =        44     NUMBER OF RHS =    1
  NUMBER OF FLOATING PT. OPERATIONS =  4.20E+03

     CHECK POINT   START OF SOLVER    

     CHECK POINT  END OF SOLVER       

       ELAPSED USER TIME (SEC)      =   0.0000    
       ELAPSED SYSTEM TIME (SEC)    =   0.0000    
       ELAPSED TOTAL CPU TIME (SEC) =   0.0000    
       ELAPSED WALLCLOCK TIME (SEC) =          0

               CONVERGENCE CHECKS FOR EQUILIBRIUM ITERATION     1


 AVERAGE FORCE                      1.380E+03   TIME AVG. FORCE        605.    
 LARGEST RESIDUAL FORCE             2.274E-12   AT NODE         17   DOF  2
 LARGEST INCREMENT OF DISP.         9.000E-04   AT NODE         23   DOF  2
 LARGEST CORRECTION TO DISP.       -4.674E-10   AT NODE         13   DOF  2
          THE FORCE     EQUILIBRIUM RESPONSE WAS LINEAR IN THIS INCREMENT

 ITERATION SUMMARY FOR THE INCREMENT:   1 TOTAL ITERATIONS, OF WHICH
   0 ARE SEVERE DISCONTINUITY ITERATIONS AND  1 ARE EQUILIBRIUM ITERATIONS.

 TIME INCREMENT COMPLETED  1.000E-02,  FRACTION OF STEP COMPLETED  0.198    
 STEP TIME COMPLETED       0.198    ,  TOTAL TIME COMPLETED        0.198    


  INCREMENT    22 STARTS. ATTEMPT NUMBER  1, TIME INCREMENT  1.000E-02

  NUMBER OF EQUATIONS =        44     NUMBER OF RHS =    1
  NUMBER OF FLOATING PT. OPERATIONS =  4.20E+03

     CHECK POINT   START OF SOLVER    

     CHECK POINT  END OF SOLVER       

       ELAPSED USER TIME (SEC)      =   0.0000    
       ELAPSED SYSTEM TIME (SEC)    =   0.0000    
       ELAPSED TOTAL CPU TIME (SEC) =   0.0000    
       ELAPSED WALLCLOCK TIME (SEC) =          0

               CONVERGENCE CHECKS FOR EQUILIBRIUM ITERATION     1


 AVERAGE FORCE                      1.450E+03   TIME AVG. FORCE        643.    
 LARGEST RESIDUAL FORCE            -9.095E-13   AT NODE          4   DOF  2
 LARGEST INCREMENT OF DISP.         9.000E-04   AT NODE         23   DOF  2
 LARGEST CORRECTION TO DISP.       -4.627E-10   AT NODE         13   DOF  2
          THE FORCE     EQUILIBRIUM RESPONSE WAS LINEAR IN THIS INCREMENT

 ITERATION SUMMARY FOR THE INCREMENT:   1 TOTAL ITERATIONS, OF WHICH
   0 ARE SEVERE DISCONTINUITY ITERATIONS AND  1 ARE EQUILIBRIUM ITERATIONS.

 TIME INCREMENT COMPLETED  1.000E-02,  FRACTION OF STEP COMPLETED  0.208    
 STEP TIME COMPLETED       0.208    ,  TOTAL TIME COMPLETED        0.208    


  INCREMENT    23 STARTS. ATTEMPT NUMBER  1, TIME INCREMENT  1.000E-02

  NUMBER OF EQUATIONS =        44     NUMBER OF RHS =    1
  NUMBER OF FLOATING PT. OPERATIONS =  4.20E+03

     CHECK POINT   START OF SOLVER    

     CHECK POINT  END OF SOLVER       

       ELAPSED USER TIME (SEC)      =   0.0000    
       ELAPSED SYSTEM TIME (SEC)    =   0.0000    
       ELAPSED TOTAL CPU TIME (SEC) =   0.0000    
       ELAPSED WALLCLOCK TIME (SEC) =          0

               CONVERGENCE CHECKS FOR EQUILIBRIUM ITERATION     1


 AVERAGE FORCE                      1.520E+03   TIME AVG. FORCE        681.    
 LARGEST RESIDUAL FORCE             1.364E-12   AT NODE         11   DOF  2
 LARGEST INCREMENT OF DISP.         9.000E-04   AT NODE         23   DOF  2
 LARGEST CORRECTION TO DISP.       -4.581E-10   AT NODE         13   DOF  2
          THE FORCE     EQUILIBRIUM RESPONSE WAS LINEAR IN THIS INCREMENT

 ITERATION SUMMARY FOR THE INCREMENT:   1 TOTAL ITERATIONS, OF WHICH
   0 ARE SEVERE DISCONTINUITY ITERATIONS AND  1 ARE EQUILIBRIUM ITERATIONS.

 TIME INCREMENT COMPLETED  1.000E-02,  FRACTION OF STEP COMPLETED  0.218    
 STEP TIME COMPLETED       0.218    ,  TOTAL TIME COMPLETED        0.218    


  INCREMENT    24 STARTS. ATTEMPT NUMBER  1, TIME INCREMENT  1.000E-02

  NUMBER OF EQUATIONS =        44     NUMBER OF RHS =    1
  NUMBER OF FLOATING PT. OPERATIONS =  4.20E+03

     CHECK POINT   START OF SOLVER    

     CHECK POINT  END OF SOLVER       

       ELAPSED USER TIME (SEC)      =   0.0000    
       ELAPSED SYSTEM TIME (SEC)    =   0.0000    
       ELAPSED TOTAL CPU TIME (SEC) =   0.0000    
       ELAPSED WALLCLOCK TIME (SEC) =          0

               CONVERGENCE CHECKS FOR EQUILIBRIUM ITERATION     1


 AVERAGE FORCE                      1.590E+03   TIME AVG. FORCE        719.    
 LARGEST RESIDUAL FORCE             1.364E-12   AT NODE          6   DOF  2
 LARGEST INCREMENT OF DISP.         9.000E-04   AT NODE         23   DOF  2
 LARGEST CORRECTION TO DISP.       -4.535E-10   AT NODE         13   DOF  2
          THE FORCE     EQUILIBRIUM RESPONSE WAS LINEAR IN THIS INCREMENT

 ITERATION SUMMARY FOR THE INCREMENT:   1 TOTAL ITERATIONS, OF WHICH
   0 ARE SEVERE DISCONTINUITY ITERATIONS AND  1 ARE EQUILIBRIUM ITERATIONS.

 TIME INCREMENT COMPLETED  1.000E-02,  FRACTION OF STEP COMPLETED  0.228    
 STEP TIME COMPLETED       0.228    ,  TOTAL TIME COMPLETED        0.228    


  INCREMENT    25 STARTS. ATTEMPT NUMBER  1, TIME INCREMENT  1.000E-02

  NUMBER OF EQUATIONS =        44     NUMBER OF RHS =    1
  NUMBER OF FLOATING PT. OPERATIONS =  4.20E+03

     CHECK POINT   START OF SOLVER    

     CHECK POINT  END OF SOLVER       

       ELAPSED USER TIME (SEC)      =   0.0000    
       ELAPSED SYSTEM TIME (SEC)    =   0.0000    
       ELAPSED TOTAL CPU TIME (SEC) =   0.0000    
       ELAPSED WALLCLOCK TIME (SEC) =          0

               CONVERGENCE CHECKS FOR EQUILIBRIUM ITERATION     1


 AVERAGE FORCE                      1.660E+03   TIME AVG. FORCE        757.    
 LARGEST RESIDUAL FORCE             1.364E-12   AT NODE          6   DOF  2
 LARGEST INCREMENT OF DISP.         9.000E-04   AT NODE         23   DOF  2
 LARGEST CORRECTION TO DISP.       -4.490E-10   AT NODE         13   DOF  2
          THE FORCE     EQUILIBRIUM RESPONSE WAS LINEAR IN THIS INCREMENT

 ITERATION SUMMARY FOR THE INCREMENT:   1 TOTAL ITERATIONS, OF WHICH
   0 ARE SEVERE DISCONTINUITY ITERATIONS AND  1 ARE EQUILIBRIUM ITERATIONS.

 TIME INCREMENT COMPLETED  1.000E-02,  FRACTION OF STEP COMPLETED  0.238    
 STEP TIME COMPLETED       0.238    ,  TOTAL TIME COMPLETED        0.238    


  INCREMENT    26 STARTS. ATTEMPT NUMBER  1, TIME INCREMENT  1.000E-02

  NUMBER OF EQUATIONS =        44     NUMBER OF RHS =    1
  NUMBER OF FLOATING PT. OPERATIONS =  4.20E+03

     CHECK POINT   START OF SOLVER    

     CHECK POINT  END OF SOLVER       

       ELAPSED USER TIME (SEC)      =   0.0000    
       ELAPSED SYSTEM TIME (SEC)    =   0.0000    
       ELAPSED TOTAL CPU TIME (SEC) =   0.0000    
       ELAPSED WALLCLOCK TIME (SEC) =          0

               CONVERGENCE CHECKS FOR EQUILIBRIUM ITERATION     1


 AVERAGE FORCE                      1.730E+03   TIME AVG. FORCE        794.    
 LARGEST RESIDUAL FORCE            -2.274E-12   AT NODE         18   DOF  2
 LARGEST INCREMENT OF DISP.         9.000E-04   AT NODE         23   DOF  2
 LARGEST CORRECTION TO DISP.       -4.445E-10   AT NODE         13   DOF  2
          THE FORCE     EQUILIBRIUM RESPONSE WAS LINEAR IN THIS INCREMENT

 ITERATION SUMMARY FOR THE INCREMENT:   1 TOTAL ITERATIONS, OF WHICH
   0 ARE SEVERE DISCONTINUITY ITERATIONS AND  1 ARE EQUILIBRIUM ITERATIONS.

 TIME INCREMENT COMPLETED  1.000E-02,  FRACTION OF STEP COMPLETED  0.248    
 STEP TIME COMPLETED       0.248    ,  TOTAL TIME COMPLETED        0.248    


  INCREMENT    27 STARTS. ATTEMPT NUMBER  1, TIME INCREMENT  1.000E-02

  NUMBER OF EQUATIONS =        44     NUMBER OF RHS =    1
  NUMBER OF FLOATING PT. OPERATIONS =  4.20E+03

     CHECK POINT   START OF SOLVER    

     CHECK POINT  END OF SOLVER       

       ELAPSED USER TIME (SEC)      =   0.0000    
       ELAPSED SYSTEM TIME (SEC)    =   0.0000    
       ELAPSED TOTAL CPU TIME (SEC) =   0.0000    
       ELAPSED WALLCLOCK TIME (SEC) =          0

               CONVERGENCE CHECKS FOR EQUILIBRIUM ITERATION     1


 AVERAGE FORCE                      1.854E+03   TIME AVG. FORCE        834.    
 LARGEST RESIDUAL FORCE             1.819E-12   AT NODE          4   DOF  2
 LARGEST INCREMENT OF DISP.         9.000E-04   AT NODE         23   DOF  2
 LARGEST CORRECTION TO DISP.       -4.401E-10   AT NODE         13   DOF  2
          THE FORCE     EQUILIBRIUM RESPONSE WAS LINEAR IN THIS INCREMENT

 ITERATION SUMMARY FOR THE INCREMENT:   1 TOTAL ITERATIONS, OF WHICH
   0 ARE SEVERE DISCONTINUITY ITERATIONS AND  1 ARE EQUILIBRIUM ITERATIONS.

 TIME INCREMENT COMPLETED  1.000E-02,  FRACTION OF STEP COMPLETED  0.258    
 STEP TIME COMPLETED       0.258    ,  TOTAL TIME COMPLETED        0.258    


  INCREMENT    28 STARTS. ATTEMPT NUMBER  1, TIME INCREMENT  1.000E-02

  NUMBER OF EQUATIONS =        44     NUMBER OF RHS =    1
  NUMBER OF FLOATING PT. OPERATIONS =  4.20E+03

     CHECK POINT   START OF SOLVER    

     CHECK POINT  END OF SOLVER       

       ELAPSED USER TIME (SEC)      =   0.0000    
       ELAPSED SYSTEM TIME (SEC)    =   0.0000    
       ELAPSED TOTAL CPU TIME (SEC) =   0.0000    
       ELAPSED WALLCLOCK TIME (SEC) =          0

               CONVERGENCE CHECKS FOR EQUILIBRIUM ITERATION     1


 AVERAGE FORCE                      1.926E+03   TIME AVG. FORCE        873.    
 LARGEST RESIDUAL FORCE            -1.819E-12   AT NODE          4   DOF  2
 LARGEST INCREMENT OF DISP.         9.000E-04   AT NODE         23   DOF  2
 LARGEST CORRECTION TO DISP.       -4.357E-10   AT NODE         13   DOF  2
          THE FORCE     EQUILIBRIUM RESPONSE WAS LINEAR IN THIS INCREMENT

 ITERATION SUMMARY FOR THE INCREMENT:   1 TOTAL ITERATIONS, OF WHICH
   0 ARE SEVERE DISCONTINUITY ITERATIONS AND  1 ARE EQUILIBRIUM ITERATIONS.

 TIME INCREMENT COMPLETED  1.000E-02,  FRACTION OF STEP COMPLETED  0.268    
 STEP TIME COMPLETED       0.268    ,  TOTAL TIME COMPLETED        0.268    


  INCREMENT    29 STARTS. ATTEMPT NUMBER  1, TIME INCREMENT  1.000E-02

  NUMBER OF EQUATIONS =        44     NUMBER OF RHS =    1
  NUMBER OF FLOATING PT. OPERATIONS =  4.20E+03

     CHECK POINT   START OF SOLVER    

     CHECK POINT  END OF SOLVER       

       ELAPSED USER TIME (SEC)      =   0.0000    
       ELAPSED SYSTEM TIME (SEC)    =   0.0000    
       ELAPSED TOTAL CPU TIME (SEC) =   0.0000    
       ELAPSED WALLCLOCK TIME (SEC) =          0

               CONVERGENCE CHECKS FOR EQUILIBRIUM ITERATION     1


 AVERAGE FORCE                      2.060E+03   TIME AVG. FORCE        914.    
 LARGEST RESIDUAL FORCE             2.274E-12   AT NODE         22   DOF  2
 LARGEST INCREMENT OF DISP.         9.000E-04   AT NODE         23   DOF  2
 LARGEST CORRECTION TO DISP.       -4.313E-10   AT NODE         13   DOF  2
          THE FORCE     EQUILIBRIUM RESPONSE WAS LINEAR IN THIS INCREMENT

 ITERATION SUMMARY FOR THE INCREMENT:   1 TOTAL ITERATIONS, OF WHICH
   0 ARE SEVERE DISCONTINUITY ITERATIONS AND  1 ARE EQUILIBRIUM ITERATIONS.

 TIME INCREMENT COMPLETED  1.000E-02,  FRACTION OF STEP COMPLETED  0.278    
 STEP TIME COMPLETED       0.278    ,  TOTAL TIME COMPLETED        0.278    


  INCREMENT    30 STARTS. ATTEMPT NUMBER  1, TIME INCREMENT  1.000E-02

  NUMBER OF EQUATIONS =        44     NUMBER OF RHS =    1
  NUMBER OF FLOATING PT. OPERATIONS =  4.20E+03

     CHECK POINT   START OF SOLVER    

     CHECK POINT  END OF SOLVER       

       ELAPSED USER TIME (SEC)      =   0.0000    
       ELAPSED SYSTEM TIME (SEC)    =   0.0000    
       ELAPSED TOTAL CPU TIME (SEC) =   0.0000    
       ELAPSED WALLCLOCK TIME (SEC) =          0

               CONVERGENCE CHECKS FOR EQUILIBRIUM ITERATION     1


 AVERAGE FORCE                      2.135E+03   TIME AVG. FORCE        954.    
 LARGEST RESIDUAL FORCE            -1.819E-12   AT NODE          7   DOF  2
 LARGEST INCREMENT OF DISP.         9.000E-04   AT NODE         23   DOF  2
 LARGEST CORRECTION TO DISP.       -4.270E-10   AT NODE         13   DOF  2
          THE FORCE     EQUILIBRIUM RESPONSE WAS LINEAR IN THIS INCREMENT

 ITERATION SUMMARY FOR THE INCREMENT:   1 TOTAL ITERATIONS, OF WHICH
   0 ARE SEVERE DISCONTINUITY ITERATIONS AND  1 ARE EQUILIBRIUM ITERATIONS.

 TIME INCREMENT COMPLETED  1.000E-02,  FRACTION OF STEP COMPLETED  0.288    
 STEP TIME COMPLETED       0.288    ,  TOTAL TIME COMPLETED        0.288    


  INCREMENT    31 STARTS. ATTEMPT NUMBER  1, TIME INCREMENT  1.000E-02

  NUMBER OF EQUATIONS =        44     NUMBER OF RHS =    1
  NUMBER OF FLOATING PT. OPERATIONS =  4.20E+03

     CHECK POINT   START OF SOLVER    

     CHECK POINT  END OF SOLVER       

       ELAPSED USER TIME (SEC)      =   0.0000    
       ELAPSED SYSTEM TIME (SEC)    =   0.0000    
       ELAPSED TOTAL CPU TIME (SEC) =   0.0000    
       ELAPSED WALLCLOCK TIME (SEC) =          0

               CONVERGENCE CHECKS FOR EQUILIBRIUM ITERATION     1


 AVERAGE FORCE                      2.209E+03   TIME AVG. FORCE        995.    
 LARGEST RESIDUAL FORCE             1.364E-12   AT NODE          6   DOF  2
 LARGEST INCREMENT OF DISP.         9.000E-04   AT NODE         23   DOF  2
 LARGEST CORRECTION TO DISP.       -4.227E-10   AT NODE         13   DOF  2
          THE FORCE     EQUILIBRIUM RESPONSE WAS LINEAR IN THIS INCREMENT

 ITERATION SUMMARY FOR THE INCREMENT:   1 TOTAL ITERATIONS, OF WHICH
   0 ARE SEVERE DISCONTINUITY ITERATIONS AND  1 ARE EQUILIBRIUM ITERATIONS.

 TIME INCREMENT COMPLETED  1.000E-02,  FRACTION OF STEP COMPLETED  0.298    
 STEP TIME COMPLETED       0.298    ,  TOTAL TIME COMPLETED        0.298    


  INCREMENT    32 STARTS. ATTEMPT NUMBER  1, TIME INCREMENT  1.000E-02

  NUMBER OF EQUATIONS =        44     NUMBER OF RHS =    1
  NUMBER OF FLOATING PT. OPERATIONS =  4.20E+03

     CHECK POINT   START OF SOLVER    

     CHECK POINT  END OF SOLVER       

       ELAPSED USER TIME (SEC)      =   0.0000    
       ELAPSED SYSTEM TIME (SEC)    =   0.0000    
       ELAPSED TOTAL CPU TIME (SEC) =   0.0000    
       ELAPSED WALLCLOCK TIME (SEC) =          0

               CONVERGENCE CHECKS FOR EQUILIBRIUM ITERATION     1


 AVERAGE FORCE                      2.283E+03   TIME AVG. FORCE       1.035E+03
 LARGEST RESIDUAL FORCE            -1.364E-12   AT NODE          5   DOF  2
 LARGEST INCREMENT OF DISP.         9.000E-04   AT NODE         23   DOF  2
 LARGEST CORRECTION TO DISP.       -4.185E-10   AT NODE         13   DOF  2
          THE FORCE     EQUILIBRIUM RESPONSE WAS LINEAR IN THIS INCREMENT

 ITERATION SUMMARY FOR THE INCREMENT:   1 TOTAL ITERATIONS, OF WHICH
   0 ARE SEVERE DISCONTINUITY ITERATIONS AND  1 ARE EQUILIBRIUM ITERATIONS.

 TIME INCREMENT COMPLETED  1.000E-02,  FRACTION OF STEP COMPLETED  0.308    
 STEP TIME COMPLETED       0.308    ,  TOTAL TIME COMPLETED        0.308    


  INCREMENT    33 STARTS. ATTEMPT NUMBER  1, TIME INCREMENT  1.000E-02

  NUMBER OF EQUATIONS =        44     NUMBER OF RHS =    1
  NUMBER OF FLOATING PT. OPERATIONS =  4.20E+03

     CHECK POINT   START OF SOLVER    

     CHECK POINT  END OF SOLVER       

       ELAPSED USER TIME (SEC)      =   0.0000    
       ELAPSED SYSTEM TIME (SEC)    =   0.0000    
       ELAPSED TOTAL CPU TIME (SEC) =   0.0000    
       ELAPSED WALLCLOCK TIME (SEC) =          0

               CONVERGENCE CHECKS FOR EQUILIBRIUM ITERATION     1


 AVERAGE FORCE                      2.357E+03   TIME AVG. FORCE       1.075E+03
 LARGEST RESIDUAL FORCE             1.819E-12   AT NODE         16   DOF  2
 LARGEST INCREMENT OF DISP.         9.000E-04   AT NODE         23   DOF  2
 LARGEST CORRECTION TO DISP.       -4.143E-10   AT NODE         13   DOF  2
          THE FORCE     EQUILIBRIUM RESPONSE WAS LINEAR IN THIS INCREMENT

 ITERATION SUMMARY FOR THE INCREMENT:   1 TOTAL ITERATIONS, OF WHICH
   0 ARE SEVERE DISCONTINUITY ITERATIONS AND  1 ARE EQUILIBRIUM ITERATIONS.

 TIME INCREMENT COMPLETED  1.000E-02,  FRACTION OF STEP COMPLETED  0.318    
 STEP TIME COMPLETED       0.318    ,  TOTAL TIME COMPLETED        0.318    


  INCREMENT    34 STARTS. ATTEMPT NUMBER  1, TIME INCREMENT  1.000E-02

  NUMBER OF EQUATIONS =        44     NUMBER OF RHS =    1
  NUMBER OF FLOATING PT. OPERATIONS =  4.20E+03

     CHECK POINT   START OF SOLVER    

     CHECK POINT  END OF SOLVER       

       ELAPSED USER TIME (SEC)      =   0.0000    
       ELAPSED SYSTEM TIME (SEC)    =   0.0000    
       ELAPSED TOTAL CPU TIME (SEC) =   0.0000    
       ELAPSED WALLCLOCK TIME (SEC) =          0

               CONVERGENCE CHECKS FOR EQUILIBRIUM ITERATION     1


 AVERAGE FORCE                      2.432E+03   TIME AVG. FORCE       1.115E+03
 LARGEST RESIDUAL FORCE            -1.819E-12   AT NODE          4   DOF  2
 LARGEST INCREMENT OF DISP.         9.000E-04   AT NODE         23   DOF  2
 LARGEST CORRECTION TO DISP.       -4.101E-10   AT NODE         13   DOF  2
          THE FORCE     EQUILIBRIUM RESPONSE WAS LINEAR IN THIS INCREMENT

 ITERATION SUMMARY FOR THE INCREMENT:   1 TOTAL ITERATIONS, OF WHICH
   0 ARE SEVERE DISCONTINUITY ITERATIONS AND  1 ARE EQUILIBRIUM ITERATIONS.

 TIME INCREMENT COMPLETED  1.000E-02,  FRACTION OF STEP COMPLETED  0.328    
 STEP TIME COMPLETED       0.328    ,  TOTAL TIME COMPLETED        0.328    


  INCREMENT    35 STARTS. ATTEMPT NUMBER  1, TIME INCREMENT  1.000E-02

  NUMBER OF EQUATIONS =        44     NUMBER OF RHS =    1
  NUMBER OF FLOATING PT. OPERATIONS =  4.20E+03

     CHECK POINT   START OF SOLVER    

     CHECK POINT  END OF SOLVER       

       ELAPSED USER TIME (SEC)      =   0.0000    
       ELAPSED SYSTEM TIME (SEC)    =   0.0000    
       ELAPSED TOTAL CPU TIME (SEC) =   0.0000    
       ELAPSED WALLCLOCK TIME (SEC) =          0

               CONVERGENCE CHECKS FOR EQUILIBRIUM ITERATION     1


 AVERAGE FORCE                      2.673E+03   TIME AVG. FORCE       1.159E+03
 LARGEST RESIDUAL FORCE             0.308       AT NODE          4   DOF  2
 LARGEST INCREMENT OF DISP.         9.000E-04   AT NODE         23   DOF  2
 LARGEST CORRECTION TO DISP.        1.437E-06   AT NODE          3   DOF  2
          THE FORCE     EQUILIBRIUM EQUATIONS HAVE CONVERGED

 ITERATION SUMMARY FOR THE INCREMENT:   1 TOTAL ITERATIONS, OF WHICH
   0 ARE SEVERE DISCONTINUITY ITERATIONS AND  1 ARE EQUILIBRIUM ITERATIONS.

 TIME INCREMENT COMPLETED  1.000E-02,  FRACTION OF STEP COMPLETED  0.338    
 STEP TIME COMPLETED       0.338    ,  TOTAL TIME COMPLETED        0.338    


  INCREMENT    36 STARTS. ATTEMPT NUMBER  1, TIME INCREMENT  1.000E-02

  NUMBER OF EQUATIONS =        44     NUMBER OF RHS =    1
  NUMBER OF FLOATING PT. OPERATIONS =  4.20E+03

     CHECK POINT   START OF SOLVER    

     CHECK POINT  END OF SOLVER       

       ELAPSED USER TIME (SEC)      =   0.0000    
       ELAPSED SYSTEM TIME (SEC)    =   0.0000    
       ELAPSED TOTAL CPU TIME (SEC) =   0.0000    
       ELAPSED WALLCLOCK TIME (SEC) =          0

               CONVERGENCE CHECKS FOR EQUILIBRIUM ITERATION     1


 AVERAGE FORCE                      2.900E+03   TIME AVG. FORCE       1.208E+03
 LARGEST RESIDUAL FORCE              90.9       AT NODE          4   DOF  2
 LARGEST INCREMENT OF DISP.         9.000E-04   AT NODE         23   DOF  2
 LARGEST CORRECTION TO DISP.        4.770E-04   AT NODE          3   DOF  2
          FORCE     EQUILIBRIUM NOT ACHIEVED WITHIN TOLERANCE.

  NUMBER OF EQUATIONS =        44     NUMBER OF RHS =    1
  NUMBER OF FLOATING PT. OPERATIONS =  4.20E+03

     CHECK POINT   START OF SOLVER    

     CHECK POINT  END OF SOLVER       

       ELAPSED USER TIME (SEC)      =   0.0000    
       ELAPSED SYSTEM TIME (SEC)    =   0.0000    
       ELAPSED TOTAL CPU TIME (SEC) =   0.0000    
       ELAPSED WALLCLOCK TIME (SEC) =          0

               CONVERGENCE CHECKS FOR EQUILIBRIUM ITERATION     2


 AVERAGE FORCE                      3.656E+03   TIME AVG. FORCE       1.229E+03
 LARGEST RESIDUAL FORCE              9.98       AT NODE          4   DOF  2
 LARGEST INCREMENT OF DISP.         9.000E-04   AT NODE         23   DOF  2
 LARGEST CORRECTION TO DISP.        3.105E-04   AT NODE          3   DOF  2
          FORCE     EQUILIBRIUM NOT ACHIEVED WITHIN TOLERANCE.

  NUMBER OF EQUATIONS =        44     NUMBER OF RHS =    1
  NUMBER OF FLOATING PT. OPERATIONS =  4.20E+03

     CHECK POINT   START OF SOLVER    

     CHECK POINT  END OF SOLVER       

       ELAPSED USER TIME (SEC)      =   0.0000    
       ELAPSED SYSTEM TIME (SEC)    =   0.0000    
       ELAPSED TOTAL CPU TIME (SEC) =   0.0000    
       ELAPSED WALLCLOCK TIME (SEC) =          0

               CONVERGENCE CHECKS FOR EQUILIBRIUM ITERATION     3


 AVERAGE FORCE                      3.654E+03   TIME AVG. FORCE       1.229E+03
 LARGEST RESIDUAL FORCE              3.13       AT NODE          4   DOF  2
 LARGEST INCREMENT OF DISP.         9.000E-04   AT NODE         23   DOF  2
 LARGEST CORRECTION TO DISP.        2.138E-05   AT NODE          3   DOF  2
 ESTIMATE OF DISP.    CORRECTION    6.697E-06
 FORCE     EQUILIB. ACCEPTED BASED ON SMALL RESIDUAL AND ESTIMATED CORRECTION

 ITERATION SUMMARY FOR THE INCREMENT:   3 TOTAL ITERATIONS, OF WHICH
   0 ARE SEVERE DISCONTINUITY ITERATIONS AND  3 ARE EQUILIBRIUM ITERATIONS.

 TIME INCREMENT COMPLETED  1.000E-02,  FRACTION OF STEP COMPLETED  0.348    
 STEP TIME COMPLETED       0.348    ,  TOTAL TIME COMPLETED        0.348    


  INCREMENT    37 STARTS. ATTEMPT NUMBER  1, TIME INCREMENT  1.000E-02

  NUMBER OF EQUATIONS =        44     NUMBER OF RHS =    1
  NUMBER OF FLOATING PT. OPERATIONS =  4.20E+03

     CHECK POINT   START OF SOLVER    

     CHECK POINT  END OF SOLVER       

       ELAPSED USER TIME (SEC)      =   0.0000    
       ELAPSED SYSTEM TIME (SEC)    =   0.0000    
       ELAPSED TOTAL CPU TIME (SEC) =   0.0000    
       ELAPSED WALLCLOCK TIME (SEC) =          0

               CONVERGENCE CHECKS FOR EQUILIBRIUM ITERATION     1


 AVERAGE FORCE                      3.656E+03   TIME AVG. FORCE       1.294E+03
 LARGEST RESIDUAL FORCE              8.84       AT NODE          4   DOF  2
 LARGEST INCREMENT OF DISP.         9.000E-04   AT NODE         23   DOF  2
 LARGEST CORRECTION TO DISP.        6.544E-05   AT NODE          4   DOF  2
          FORCE     EQUILIBRIUM NOT ACHIEVED WITHIN TOLERANCE.

  NUMBER OF EQUATIONS =        44     NUMBER OF RHS =    1
  NUMBER OF FLOATING PT. OPERATIONS =  4.20E+03

     CHECK POINT   START OF SOLVER    

     CHECK POINT  END OF SOLVER       

       ELAPSED USER TIME (SEC)      =   0.0000    
       ELAPSED SYSTEM TIME (SEC)    =   0.0000    
       ELAPSED TOTAL CPU TIME (SEC) =   0.0000    
       ELAPSED WALLCLOCK TIME (SEC) =          0

               CONVERGENCE CHECKS FOR EQUILIBRIUM ITERATION     2


 AVERAGE FORCE                      3.645E+03   TIME AVG. FORCE       1.294E+03
 LARGEST RESIDUAL FORCE             -16.7       AT NODE          4   DOF  2
 LARGEST INCREMENT OF DISP.         9.843E-04   AT NODE          3   DOF  2
 LARGEST CORRECTION TO DISP.        1.020E-04   AT NODE          3   DOF  2
          FORCE     EQUILIBRIUM NOT ACHIEVED WITHIN TOLERANCE.

  NUMBER OF EQUATIONS =        44     NUMBER OF RHS =    1
  NUMBER OF FLOATING PT. OPERATIONS =  4.20E+03

     CHECK POINT   START OF SOLVER    

     CHECK POINT  END OF SOLVER       

       ELAPSED USER TIME (SEC)      =   0.0000    
       ELAPSED SYSTEM TIME (SEC)    =   0.0000    
       ELAPSED TOTAL CPU TIME (SEC) =   0.0000    
       ELAPSED WALLCLOCK TIME (SEC) =          0

               CONVERGENCE CHECKS FOR EQUILIBRIUM ITERATION     3


 AVERAGE FORCE                      3.649E+03   TIME AVG. FORCE       1.294E+03
 LARGEST RESIDUAL FORCE             -6.73       AT NODE          4   DOF  2
 LARGEST INCREMENT OF DISP.         9.442E-04   AT NODE          3   DOF  2
 LARGEST CORRECTION TO DISP.       -4.011E-05   AT NODE          4   DOF  2
          FORCE     EQUILIBRIUM NOT ACHIEVED WITHIN TOLERANCE.

  NUMBER OF EQUATIONS =        44     NUMBER OF RHS =    1
  NUMBER OF FLOATING PT. OPERATIONS =  4.20E+03

     CHECK POINT   START OF SOLVER    

     CHECK POINT  END OF SOLVER       

       ELAPSED USER TIME (SEC)      =   0.0000    
       ELAPSED SYSTEM TIME (SEC)    =   0.0000    
       ELAPSED TOTAL CPU TIME (SEC) =   0.0000    
       ELAPSED WALLCLOCK TIME (SEC) =          0

               CONVERGENCE CHECKS FOR EQUILIBRIUM ITERATION     4


 AVERAGE FORCE                      3.654E+03   TIME AVG. FORCE       1.294E+03
 LARGEST RESIDUAL FORCE              3.24       AT NODE          4   DOF  2
 LARGEST INCREMENT OF DISP.         9.029E-04   AT NODE          3   DOF  2
 LARGEST CORRECTION TO DISP.       -4.124E-05   AT NODE          3   DOF  2
          DISP.    CORRECTION TOO LARGE COMPARED TO DISP.    INCREMENT

  NUMBER OF EQUATIONS =        44     NUMBER OF RHS =    1
  NUMBER OF FLOATING PT. OPERATIONS =  4.20E+03

     CHECK POINT   START OF SOLVER    

     CHECK POINT  END OF SOLVER       

       ELAPSED USER TIME (SEC)      =   0.0000    
       ELAPSED SYSTEM TIME (SEC)    =   0.0000    
       ELAPSED TOTAL CPU TIME (SEC) =   0.0000    
       ELAPSED WALLCLOCK TIME (SEC) =          0

               CONVERGENCE CHECKS FOR EQUILIBRIUM ITERATION     5


 AVERAGE FORCE                      3.653E+03   TIME AVG. FORCE       1.294E+03
 LARGEST RESIDUAL FORCE             0.195       AT NODE          4   DOF  2
 LARGEST INCREMENT OF DISP.         9.130E-04   AT NODE          3   DOF  2
 LARGEST CORRECTION TO DISP.        1.011E-05   AT NODE          3   DOF  2
 ESTIMATE OF DISP.    CORRECTION    6.078E-07
 FORCE     EQUILIB. ACCEPTED BASED ON SMALL RESIDUAL AND ESTIMATED CORRECTION

 ITERATION SUMMARY FOR THE INCREMENT:   5 TOTAL ITERATIONS, OF WHICH
   0 ARE SEVERE DISCONTINUITY ITERATIONS AND  5 ARE EQUILIBRIUM ITERATIONS.

 TIME INCREMENT COMPLETED  1.000E-02,  FRACTION OF STEP COMPLETED  0.358    
 STEP TIME COMPLETED       0.358    ,  TOTAL TIME COMPLETED        0.358    


  INCREMENT    38 STARTS. ATTEMPT NUMBER  1, TIME INCREMENT  1.000E-02

  NUMBER OF EQUATIONS =        44     NUMBER OF RHS =    1
  NUMBER OF FLOATING PT. OPERATIONS =  4.20E+03

     CHECK POINT   START OF SOLVER    

     CHECK POINT  END OF SOLVER       

       ELAPSED USER TIME (SEC)      =   0.0000    
       ELAPSED SYSTEM TIME (SEC)    =   0.0000    
       ELAPSED TOTAL CPU TIME (SEC) =   0.0000    
       ELAPSED WALLCLOCK TIME (SEC) =          0

               CONVERGENCE CHECKS FOR EQUILIBRIUM ITERATION     1


 AVERAGE FORCE                      3.652E+03   TIME AVG. FORCE       1.356E+03
 LARGEST RESIDUAL FORCE             0.114       AT NODE          4   DOF  2
 LARGEST INCREMENT OF DISP.         9.023E-04   AT NODE          3   DOF  2
 LARGEST CORRECTION TO DISP.       -1.073E-05   AT NODE          3   DOF  2
 ESTIMATE OF DISP.    CORRECTION    3.770E-07
 FORCE     EQUILIB. ACCEPTED BASED ON SMALL RESIDUAL AND ESTIMATED CORRECTION

 ITERATION SUMMARY FOR THE INCREMENT:   1 TOTAL ITERATIONS, OF WHICH
   0 ARE SEVERE DISCONTINUITY ITERATIONS AND  1 ARE EQUILIBRIUM ITERATIONS.

 TIME INCREMENT COMPLETED  1.000E-02,  FRACTION OF STEP COMPLETED  0.368    
 STEP TIME COMPLETED       0.368    ,  TOTAL TIME COMPLETED        0.368    


  INCREMENT    39 STARTS. ATTEMPT NUMBER  1, TIME INCREMENT  1.000E-02

  NUMBER OF EQUATIONS =        44     NUMBER OF RHS =    1
  NUMBER OF FLOATING PT. OPERATIONS =  4.20E+03

     CHECK POINT   START OF SOLVER    

     CHECK POINT  END OF SOLVER       

       ELAPSED USER TIME (SEC)      =   0.0000    
       ELAPSED SYSTEM TIME (SEC)    =   0.0000    
       ELAPSED TOTAL CPU TIME (SEC) =   0.0000    
       ELAPSED WALLCLOCK TIME (SEC) =          0

               CONVERGENCE CHECKS FOR EQUILIBRIUM ITERATION     1


 AVERAGE FORCE                      3.652E+03   TIME AVG. FORCE       1.415E+03
 LARGEST RESIDUAL FORCE             5.208E-04   AT NODE          4   DOF  2
 LARGEST INCREMENT OF DISP.         9.033E-04   AT NODE          3   DOF  2
 LARGEST CORRECTION TO DISP.        1.009E-06   AT NODE          3   DOF  2
          THE FORCE     EQUILIBRIUM EQUATIONS HAVE CONVERGED

 ITERATION SUMMARY FOR THE INCREMENT:   1 TOTAL ITERATIONS, OF WHICH
   0 ARE SEVERE DISCONTINUITY ITERATIONS AND  1 ARE EQUILIBRIUM ITERATIONS.

 TIME INCREMENT COMPLETED  1.000E-02,  FRACTION OF STEP COMPLETED  0.378    
 STEP TIME COMPLETED       0.378    ,  TOTAL TIME COMPLETED        0.378    


  INCREMENT    40 STARTS. ATTEMPT NUMBER  1, TIME INCREMENT  1.000E-02

  NUMBER OF EQUATIONS =        44     NUMBER OF RHS =    1
  NUMBER OF FLOATING PT. OPERATIONS =  4.20E+03

     CHECK POINT   START OF SOLVER    

     CHECK POINT  END OF SOLVER       

       ELAPSED USER TIME (SEC)      =   0.0000    
       ELAPSED SYSTEM TIME (SEC)    =   0.0000    
       ELAPSED TOTAL CPU TIME (SEC) =   0.0000    
       ELAPSED WALLCLOCK TIME (SEC) =          0

               CONVERGENCE CHECKS FOR EQUILIBRIUM ITERATION     1


 AVERAGE FORCE                      3.652E+03   TIME AVG. FORCE       1.471E+03
 LARGEST RESIDUAL FORCE             8.307E-05   AT NODE          4   DOF  2
 LARGEST INCREMENT OF DISP.         9.028E-04   AT NODE          3   DOF  2
 LARGEST CORRECTION TO DISP.       -4.941E-07   AT NODE          3   DOF  2
          THE FORCE     EQUILIBRIUM EQUATIONS HAVE CONVERGED

 ITERATION SUMMARY FOR THE INCREMENT:   1 TOTAL ITERATIONS, OF WHICH
   0 ARE SEVERE DISCONTINUITY ITERATIONS AND  1 ARE EQUILIBRIUM ITERATIONS.

 TIME INCREMENT COMPLETED  1.000E-02,  FRACTION OF STEP COMPLETED  0.388    
 STEP TIME COMPLETED       0.388    ,  TOTAL TIME COMPLETED        0.388    


  INCREMENT    41 STARTS. ATTEMPT NUMBER  1, TIME INCREMENT  1.000E-02

  NUMBER OF EQUATIONS =        44     NUMBER OF RHS =    1
  NUMBER OF FLOATING PT. OPERATIONS =  4.20E+03

     CHECK POINT   START OF SOLVER    

     CHECK POINT  END OF SOLVER       

       ELAPSED USER TIME (SEC)      =   0.0000    
       ELAPSED SYSTEM TIME (SEC)    =   0.0000    
       ELAPSED TOTAL CPU TIME (SEC) =   0.0000    
       ELAPSED WALLCLOCK TIME (SEC) =          0

               CONVERGENCE CHECKS FOR EQUILIBRIUM ITERATION     1


 AVERAGE FORCE                      3.651E+03   TIME AVG. FORCE       1.524E+03
 LARGEST RESIDUAL FORCE             1.079E-03   AT NODE          4   DOF  2
 LARGEST INCREMENT OF DISP.         9.007E-04   AT NODE          5   DOF  2
 LARGEST CORRECTION TO DISP.       -2.146E-06   AT NODE          3   DOF  2
          THE FORCE     EQUILIBRIUM EQUATIONS HAVE CONVERGED

 ITERATION SUMMARY FOR THE INCREMENT:   1 TOTAL ITERATIONS, OF WHICH
   0 ARE SEVERE DISCONTINUITY ITERATIONS AND  1 ARE EQUILIBRIUM ITERATIONS.

 TIME INCREMENT COMPLETED  1.000E-02,  FRACTION OF STEP COMPLETED  0.398    
 STEP TIME COMPLETED       0.398    ,  TOTAL TIME COMPLETED        0.398    


  INCREMENT    42 STARTS. ATTEMPT NUMBER  1, TIME INCREMENT  1.000E-02

  NUMBER OF EQUATIONS =        44     NUMBER OF RHS =    1
  NUMBER OF FLOATING PT. OPERATIONS =  4.20E+03

     CHECK POINT   START OF SOLVER    

     CHECK POINT  END OF SOLVER       

       ELAPSED USER TIME (SEC)      =   0.0000    
       ELAPSED SYSTEM TIME (SEC)    =   0.0000    
       ELAPSED TOTAL CPU TIME (SEC) =   0.0000    
       ELAPSED WALLCLOCK TIME (SEC) =          0

               CONVERGENCE CHECKS FOR EQUILIBRIUM ITERATION     1


 AVERAGE FORCE                      3.651E+03   TIME AVG. FORCE       1.575E+03
 LARGEST RESIDUAL FORCE             4.572E-04   AT NODE          4   DOF  2
 LARGEST INCREMENT OF DISP.         9.023E-04   AT NODE          3   DOF  2
 LARGEST CORRECTION TO DISP.        1.610E-06   AT NODE          3   DOF  2
          THE FORCE     EQUILIBRIUM EQUATIONS HAVE CONVERGED

 ITERATION SUMMARY FOR THE INCREMENT:   1 TOTAL ITERATIONS, OF WHICH
   0 ARE SEVERE DISCONTINUITY ITERATIONS AND  1 ARE EQUILIBRIUM ITERATIONS.

 TIME INCREMENT COMPLETED  1.000E-02,  FRACTION OF STEP COMPLETED  0.408    
 STEP TIME COMPLETED       0.408    ,  TOTAL TIME COMPLETED        0.408    


  INCREMENT    43 STARTS. ATTEMPT NUMBER  1, TIME INCREMENT  1.000E-02

  NUMBER OF EQUATIONS =        44     NUMBER OF RHS =    1
  NUMBER OF FLOATING PT. OPERATIONS =  4.20E+03

     CHECK POINT   START OF SOLVER    

     CHECK POINT  END OF SOLVER       

       ELAPSED USER TIME (SEC)      =   0.0000    
       ELAPSED SYSTEM TIME (SEC)    =   0.0000    
       ELAPSED TOTAL CPU TIME (SEC) =   0.0000    
       ELAPSED WALLCLOCK TIME (SEC) =          0

               CONVERGENCE CHECKS FOR EQUILIBRIUM ITERATION     1


 AVERAGE FORCE                      3.651E+03   TIME AVG. FORCE       1.623E+03
 LARGEST RESIDUAL FORCE             5.718E-04   AT NODE          4   DOF  2
 LARGEST INCREMENT OF DISP.         9.003E-04   AT NODE          7   DOF  2
 LARGEST CORRECTION TO DISP.       -2.065E-06   AT NODE          3   DOF  2
          THE FORCE     EQUILIBRIUM EQUATIONS HAVE CONVERGED

 ITERATION SUMMARY FOR THE INCREMENT:   1 TOTAL ITERATIONS, OF WHICH
   0 ARE SEVERE DISCONTINUITY ITERATIONS AND  1 ARE EQUILIBRIUM ITERATIONS.

 TIME INCREMENT COMPLETED  1.000E-02,  FRACTION OF STEP COMPLETED  0.418    
 STEP TIME COMPLETED       0.418    ,  TOTAL TIME COMPLETED        0.418    


  INCREMENT    44 STARTS. ATTEMPT NUMBER  1, TIME INCREMENT  1.000E-02

  NUMBER OF EQUATIONS =        44     NUMBER OF RHS =    1
  NUMBER OF FLOATING PT. OPERATIONS =  4.20E+03

     CHECK POINT   START OF SOLVER    

     CHECK POINT  END OF SOLVER       

       ELAPSED USER TIME (SEC)      =   0.0000    
       ELAPSED SYSTEM TIME (SEC)    =   0.0000    
       ELAPSED TOTAL CPU TIME (SEC) =   0.0000    
       ELAPSED WALLCLOCK TIME (SEC) =          0

               CONVERGENCE CHECKS FOR EQUILIBRIUM ITERATION     1


 AVERAGE FORCE                      3.651E+03   TIME AVG. FORCE       1.669E+03
 LARGEST RESIDUAL FORCE             3.000E-04   AT NODE          4   DOF  2
 LARGEST INCREMENT OF DISP.         9.019E-04   AT NODE          3   DOF  2
 LARGEST CORRECTION TO DISP.        1.670E-06   AT NODE          3   DOF  2
          THE FORCE     EQUILIBRIUM EQUATIONS HAVE CONVERGED

 ITERATION SUMMARY FOR THE INCREMENT:   1 TOTAL ITERATIONS, OF WHICH
   0 ARE SEVERE DISCONTINUITY ITERATIONS AND  1 ARE EQUILIBRIUM ITERATIONS.

 TIME INCREMENT COMPLETED  1.000E-02,  FRACTION OF STEP COMPLETED  0.428    
 STEP TIME COMPLETED       0.428    ,  TOTAL TIME COMPLETED        0.428    


  INCREMENT    45 STARTS. ATTEMPT NUMBER  1, TIME INCREMENT  1.000E-02

  NUMBER OF EQUATIONS =        44     NUMBER OF RHS =    1
  NUMBER OF FLOATING PT. OPERATIONS =  4.20E+03

     CHECK POINT   START OF SOLVER    

     CHECK POINT  END OF SOLVER       

       ELAPSED USER TIME (SEC)      =   0.0000    
       ELAPSED SYSTEM TIME (SEC)    =   0.0000    
       ELAPSED TOTAL CPU TIME (SEC) =   0.0000    
       ELAPSED WALLCLOCK TIME (SEC) =          0

               CONVERGENCE CHECKS FOR EQUILIBRIUM ITERATION     1


 AVERAGE FORCE                      3.651E+03   TIME AVG. FORCE       1.713E+03
 LARGEST RESIDUAL FORCE             2.730E-04   AT NODE          4   DOF  2
 LARGEST INCREMENT OF DISP.         9.002E-04   AT NODE          9   DOF  2
 LARGEST CORRECTION TO DISP.       -1.779E-06   AT NODE          4   DOF  2
          THE FORCE     EQUILIBRIUM EQUATIONS HAVE CONVERGED

 ITERATION SUMMARY FOR THE INCREMENT:   1 TOTAL ITERATIONS, OF WHICH
   0 ARE SEVERE DISCONTINUITY ITERATIONS AND  1 ARE EQUILIBRIUM ITERATIONS.

 TIME INCREMENT COMPLETED  1.000E-02,  FRACTION OF STEP COMPLETED  0.438    
 STEP TIME COMPLETED       0.438    ,  TOTAL TIME COMPLETED        0.438    


  INCREMENT    46 STARTS. ATTEMPT NUMBER  1, TIME INCREMENT  1.000E-02

  NUMBER OF EQUATIONS =        44     NUMBER OF RHS =    1
  NUMBER OF FLOATING PT. OPERATIONS =  4.20E+03

     CHECK POINT   START OF SOLVER    

     CHECK POINT  END OF SOLVER       

       ELAPSED USER TIME (SEC)      =   0.0000    
       ELAPSED SYSTEM TIME (SEC)    =   0.0000    
       ELAPSED TOTAL CPU TIME (SEC) =   0.0000    
       ELAPSED WALLCLOCK TIME (SEC) =          0
 

 ***WARNING: THE SYSTEM MATRIX HAS 1 NEGATIVE EIGENVALUES.

     NEGATIVE EIGENVALUES MEAN THAT THE SYSTEM MATRIX IS NOT 
     POSITIVE DEFINITE:
     FOR EXAMPLE, A BIFURCATION (BUCKLING) LOAD MAY HAVE BEEN EXCEEDED.

               CONVERGENCE CHECKS FOR EQUILIBRIUM ITERATION     1


 AVERAGE FORCE                      2.907E+03   TIME AVG. FORCE       1.739E+03
 LARGEST RESIDUAL FORCE              116.       AT NODE          4   DOF  2
 LARGEST INCREMENT OF DISP.         9.000E-04   AT NODE         23   DOF  2
 LARGEST CORRECTION TO DISP.       -4.488E-04   AT NODE          3   DOF  2
          FORCE     EQUILIBRIUM NOT ACHIEVED WITHIN TOLERANCE.

  NUMBER OF EQUATIONS =        44     NUMBER OF RHS =    1
  NUMBER OF FLOATING PT. OPERATIONS =  4.20E+03

     CHECK POINT   START OF SOLVER    

     CHECK POINT  END OF SOLVER       

       ELAPSED USER TIME (SEC)      =   0.0000    
       ELAPSED SYSTEM TIME (SEC)    =   0.0000    
       ELAPSED TOTAL CPU TIME (SEC) =   0.0000    
       ELAPSED WALLCLOCK TIME (SEC) =          0

               CONVERGENCE CHECKS FOR EQUILIBRIUM ITERATION     2


 AVERAGE FORCE                      3.629E+03   TIME AVG. FORCE       1.755E+03
 LARGEST RESIDUAL FORCE              494.       AT NODE          4   DOF  2
 LARGEST INCREMENT OF DISP.         9.000E-04   AT NODE         23   DOF  2
 LARGEST CORRECTION TO DISP.        4.413E-04   AT NODE          3   DOF  2
          FORCE     EQUILIBRIUM NOT ACHIEVED WITHIN TOLERANCE.

  NUMBER OF EQUATIONS =        44     NUMBER OF RHS =    1
  NUMBER OF FLOATING PT. OPERATIONS =  4.20E+03

     CHECK POINT   START OF SOLVER    

     CHECK POINT  END OF SOLVER       

       ELAPSED USER TIME (SEC)      =   0.0000    
       ELAPSED SYSTEM TIME (SEC)    =   0.0000    
       ELAPSED TOTAL CPU TIME (SEC) =   0.0000    
       ELAPSED WALLCLOCK TIME (SEC) =          0
 

 ***WARNING: THE SYSTEM MATRIX HAS 1 NEGATIVE EIGENVALUES.
             EXPLANATIONS ARE SUGGESTED AFTER THE FIRST OCCURRENCE OF THIS MESSAGE.

               CONVERGENCE CHECKS FOR EQUILIBRIUM ITERATION     3


 AVERAGE FORCE                      2.907E+03   TIME AVG. FORCE       1.739E+03
 LARGEST RESIDUAL FORCE              116.       AT NODE          4   DOF  2
 LARGEST INCREMENT OF DISP.         9.000E-04   AT NODE         23   DOF  2
 LARGEST CORRECTION TO DISP.       -4.425E-04   AT NODE          3   DOF  2
          FORCE     EQUILIBRIUM NOT ACHIEVED WITHIN TOLERANCE.

  NUMBER OF EQUATIONS =        44     NUMBER OF RHS =    1
  NUMBER OF FLOATING PT. OPERATIONS =  4.20E+03

     CHECK POINT   START OF SOLVER    

     CHECK POINT  END OF SOLVER       

       ELAPSED USER TIME (SEC)      =   0.0000    
       ELAPSED SYSTEM TIME (SEC)    =   0.0000    
       ELAPSED TOTAL CPU TIME (SEC) =   0.0000    
       ELAPSED WALLCLOCK TIME (SEC) =          0

               CONVERGENCE CHECKS FOR EQUILIBRIUM ITERATION     4


 AVERAGE FORCE                      3.629E+03   TIME AVG. FORCE       1.755E+03
 LARGEST RESIDUAL FORCE              493.       AT NODE          4   DOF  2
 LARGEST INCREMENT OF DISP.         9.000E-04   AT NODE         23   DOF  2
 LARGEST CORRECTION TO DISP.        4.422E-04   AT NODE          3   DOF  2
          FORCE     EQUILIBRIUM NOT ACHIEVED WITHIN TOLERANCE.
 

 ***NOTE: THE SOLUTION APPEARS TO BE DIVERGING. CONVERGENCE IS JUDGED UNLIKELY.


  INCREMENT    46 STARTS. ATTEMPT NUMBER  2, TIME INCREMENT  2.500E-03

  NUMBER OF EQUATIONS =        44     NUMBER OF RHS =    1
  NUMBER OF FLOATING PT. OPERATIONS =  4.20E+03

     CHECK POINT   START OF SOLVER    

     CHECK POINT  END OF SOLVER       

       ELAPSED USER TIME (SEC)      =   0.0000    
       ELAPSED SYSTEM TIME (SEC)    =   0.0000    
       ELAPSED TOTAL CPU TIME (SEC) =   0.0000    
       ELAPSED WALLCLOCK TIME (SEC) =          0

               CONVERGENCE CHECKS FOR EQUILIBRIUM ITERATION     1


 AVERAGE FORCE                      3.651E+03   TIME AVG. FORCE       1.755E+03
 LARGEST RESIDUAL FORCE             3.122E-05   AT NODE          4   DOF  2
 LARGEST INCREMENT OF DISP.         2.256E-04   AT NODE          3   DOF  2
 LARGEST CORRECTION TO DISP.        6.127E-07   AT NODE          3   DOF  2
          THE FORCE     EQUILIBRIUM EQUATIONS HAVE CONVERGED
          TIME INCREMENT MAY NOW INCREASE TO    3.750E-03

 ITERATION SUMMARY FOR THE INCREMENT:   1 TOTAL ITERATIONS, OF WHICH
   0 ARE SEVERE DISCONTINUITY ITERATIONS AND  1 ARE EQUILIBRIUM ITERATIONS.

 TIME INCREMENT COMPLETED  2.500E-03,  FRACTION OF STEP COMPLETED  0.440    
 STEP TIME COMPLETED       0.440    ,  TOTAL TIME COMPLETED        0.440    


  INCREMENT    47 STARTS. ATTEMPT NUMBER  1, TIME INCREMENT  3.750E-03

  NUMBER OF EQUATIONS =        44     NUMBER OF RHS =    1
  NUMBER OF FLOATING PT. OPERATIONS =  4.20E+03

     CHECK POINT   START OF SOLVER    

     CHECK POINT  END OF SOLVER       

       ELAPSED USER TIME (SEC)      =   0.0000    
       ELAPSED SYSTEM TIME (SEC)    =   0.0000    
       ELAPSED TOTAL CPU TIME (SEC) =   0.0000    
       ELAPSED WALLCLOCK TIME (SEC) =          0
 

 ***WARNING: THE SYSTEM MATRIX HAS 1 NEGATIVE EIGENVALUES.
             EXPLANATIONS ARE SUGGESTED AFTER THE FIRST OCCURRENCE OF THIS MESSAGE.

               CONVERGENCE CHECKS FOR EQUILIBRIUM ITERATION     1


 AVERAGE FORCE                      3.655E+03   TIME AVG. FORCE       1.796E+03
 LARGEST RESIDUAL FORCE              10.3       AT NODE          4   DOF  2
 LARGEST INCREMENT OF DISP.         3.375E-04   AT NODE         23   DOF  2
 LARGEST CORRECTION TO DISP.       -3.649E-05   AT NODE          4   DOF  2
          FORCE     EQUILIBRIUM NOT ACHIEVED WITHIN TOLERANCE.

  NUMBER OF EQUATIONS =        44     NUMBER OF RHS =    1
  NUMBER OF FLOATING PT. OPERATIONS =  4.20E+03

     CHECK POINT   START OF SOLVER    

     CHECK POINT  END OF SOLVER       

       ELAPSED USER TIME (SEC)      =   0.0000    
       ELAPSED SYSTEM TIME (SEC)    =   0.0000    
       ELAPSED TOTAL CPU TIME (SEC) =   0.0000    
       ELAPSED WALLCLOCK TIME (SEC) =          0

               CONVERGENCE CHECKS FOR EQUILIBRIUM ITERATION     2


 AVERAGE FORCE                      3.649E+03   TIME AVG. FORCE       1.796E+03
 LARGEST RESIDUAL FORCE              40.4       AT NODE          4   DOF  2
 LARGEST INCREMENT OF DISP.         3.391E-04   AT NODE          3   DOF  2
 LARGEST CORRECTION TO DISP.        3.715E-05   AT NODE          4   DOF  2
          FORCE     EQUILIBRIUM NOT ACHIEVED WITHIN TOLERANCE.

  NUMBER OF EQUATIONS =        44     NUMBER OF RHS =    1
  NUMBER OF FLOATING PT. OPERATIONS =  4.20E+03

     CHECK POINT   START OF SOLVER    

     CHECK POINT  END OF SOLVER       

       ELAPSED USER TIME (SEC)      =   0.0000    
       ELAPSED SYSTEM TIME (SEC)    =   0.0000    
       ELAPSED TOTAL CPU TIME (SEC) =   0.0000    
       ELAPSED WALLCLOCK TIME (SEC) =          0
 

 ***WARNING: THE SYSTEM MATRIX HAS 1 NEGATIVE EIGENVALUES.
             EXPLANATIONS ARE SUGGESTED AFTER THE FIRST OCCURRENCE OF THIS MESSAGE.

               CONVERGENCE CHECKS FOR EQUILIBRIUM ITERATION     3


 AVERAGE FORCE                      3.655E+03   TIME AVG. FORCE       1.796E+03
 LARGEST RESIDUAL FORCE              10.3       AT NODE          4   DOF  2
 LARGEST INCREMENT OF DISP.         3.375E-04   AT NODE         23   DOF  2
 LARGEST CORRECTION TO DISP.       -3.714E-05   AT NODE          4   DOF  2
          FORCE     EQUILIBRIUM NOT ACHIEVED WITHIN TOLERANCE.

  NUMBER OF EQUATIONS =        44     NUMBER OF RHS =    1
  NUMBER OF FLOATING PT. OPERATIONS =  4.20E+03

     CHECK POINT   START OF SOLVER    

     CHECK POINT  END OF SOLVER       

       ELAPSED USER TIME (SEC)      =   0.0000    
       ELAPSED SYSTEM TIME (SEC)    =   0.0000    
       ELAPSED TOTAL CPU TIME (SEC) =   0.0000    
       ELAPSED WALLCLOCK TIME (SEC) =          0

               CONVERGENCE CHECKS FOR EQUILIBRIUM ITERATION     4


 AVERAGE FORCE                      3.649E+03   TIME AVG. FORCE       1.796E+03
 LARGEST RESIDUAL FORCE              40.4       AT NODE          4   DOF  2
 LARGEST INCREMENT OF DISP.         3.391E-04   AT NODE          3   DOF  2
 LARGEST CORRECTION TO DISP.        3.714E-05   AT NODE          3   DOF  2
          FORCE     EQUILIBRIUM NOT ACHIEVED WITHIN TOLERANCE.
 

 ***NOTE: THE SOLUTION APPEARS TO BE DIVERGING. CONVERGENCE IS JUDGED UNLIKELY.


  INCREMENT    47 STARTS. ATTEMPT NUMBER  2, TIME INCREMENT  9.375E-04

  NUMBER OF EQUATIONS =        44     NUMBER OF RHS =    1
  NUMBER OF FLOATING PT. OPERATIONS =  4.20E+03

     CHECK POINT   START OF SOLVER    

     CHECK POINT  END OF SOLVER       

       ELAPSED USER TIME (SEC)      =   0.0000    
       ELAPSED SYSTEM TIME (SEC)    =   0.0000    
       ELAPSED TOTAL CPU TIME (SEC) =   0.0000    
       ELAPSED WALLCLOCK TIME (SEC) =          0

               CONVERGENCE CHECKS FOR EQUILIBRIUM ITERATION     1


 AVERAGE FORCE                      3.651E+03   TIME AVG. FORCE       1.796E+03
 LARGEST RESIDUAL FORCE             2.367E-05   AT NODE          4   DOF  2
 LARGEST INCREMENT OF DISP.         8.437E-05   AT NODE         23   DOF  2
 LARGEST CORRECTION TO DISP.       -5.405E-07   AT NODE          3   DOF  2
          THE FORCE     EQUILIBRIUM EQUATIONS HAVE CONVERGED
          TIME INCREMENT MAY NOW INCREASE TO    1.406E-03

 ITERATION SUMMARY FOR THE INCREMENT:   1 TOTAL ITERATIONS, OF WHICH
   0 ARE SEVERE DISCONTINUITY ITERATIONS AND  1 ARE EQUILIBRIUM ITERATIONS.

 TIME INCREMENT COMPLETED  9.375E-04,  FRACTION OF STEP COMPLETED  0.441    
 STEP TIME COMPLETED       0.441    ,  TOTAL TIME COMPLETED        0.441    


  INCREMENT    48 STARTS. ATTEMPT NUMBER  1, TIME INCREMENT  1.406E-03

  NUMBER OF EQUATIONS =        44     NUMBER OF RHS =    1
  NUMBER OF FLOATING PT. OPERATIONS =  4.20E+03

     CHECK POINT   START OF SOLVER    

     CHECK POINT  END OF SOLVER       

       ELAPSED USER TIME (SEC)      =   0.0000    
       ELAPSED SYSTEM TIME (SEC)    =   0.0000    
       ELAPSED TOTAL CPU TIME (SEC) =   0.0000    
       ELAPSED WALLCLOCK TIME (SEC) =          0

               CONVERGENCE CHECKS FOR EQUILIBRIUM ITERATION     1


 AVERAGE FORCE                      3.651E+03   TIME AVG. FORCE       1.834E+03
 LARGEST RESIDUAL FORCE             9.928E-05   AT NODE          4   DOF  2
 LARGEST INCREMENT OF DISP.         1.272E-04   AT NODE          3   DOF  2
 LARGEST CORRECTION TO DISP.        1.114E-06   AT NODE          3   DOF  2
          THE FORCE     EQUILIBRIUM EQUATIONS HAVE CONVERGED
          TIME INCREMENT MAY NOW INCREASE TO    2.109E-03

 ITERATION SUMMARY FOR THE INCREMENT:   1 TOTAL ITERATIONS, OF WHICH
   0 ARE SEVERE DISCONTINUITY ITERATIONS AND  1 ARE EQUILIBRIUM ITERATIONS.

 TIME INCREMENT COMPLETED  1.406E-03,  FRACTION OF STEP COMPLETED  0.442    
 STEP TIME COMPLETED       0.442    ,  TOTAL TIME COMPLETED        0.442    


  INCREMENT    49 STARTS. ATTEMPT NUMBER  1, TIME INCREMENT  2.109E-03

  NUMBER OF EQUATIONS =        44     NUMBER OF RHS =    1
  NUMBER OF FLOATING PT. OPERATIONS =  4.20E+03

     CHECK POINT   START OF SOLVER    

     CHECK POINT  END OF SOLVER       

       ELAPSED USER TIME (SEC)      =   0.0000    
       ELAPSED SYSTEM TIME (SEC)    =   0.0000    
       ELAPSED TOTAL CPU TIME (SEC) =   0.0000    
       ELAPSED WALLCLOCK TIME (SEC) =          0
 

 ***WARNING: THE SYSTEM MATRIX HAS 1 NEGATIVE EIGENVALUES.
             EXPLANATIONS ARE SUGGESTED AFTER THE FIRST OCCURRENCE OF THIS MESSAGE.

               CONVERGENCE CHECKS FOR EQUILIBRIUM ITERATION     1


 AVERAGE FORCE                      2.879E+03   TIME AVG. FORCE       1.856E+03
 LARGEST RESIDUAL FORCE              37.5       AT NODE          4   DOF  2
 LARGEST INCREMENT OF DISP.         1.898E-04   AT NODE         23   DOF  2
 LARGEST CORRECTION TO DISP.       -1.200E-04   AT NODE          3   DOF  2
          FORCE     EQUILIBRIUM NOT ACHIEVED WITHIN TOLERANCE.

  NUMBER OF EQUATIONS =        44     NUMBER OF RHS =    1
  NUMBER OF FLOATING PT. OPERATIONS =  4.20E+03

     CHECK POINT   START OF SOLVER    

     CHECK POINT  END OF SOLVER       

       ELAPSED USER TIME (SEC)      =   0.0000    
       ELAPSED SYSTEM TIME (SEC)    =   0.0000    
       ELAPSED TOTAL CPU TIME (SEC) =   0.0000    
       ELAPSED WALLCLOCK TIME (SEC) =          0

               CONVERGENCE CHECKS FOR EQUILIBRIUM ITERATION     2


 AVERAGE FORCE                      3.645E+03   TIME AVG. FORCE       1.871E+03
 LARGEST RESIDUAL FORCE              128.       AT NODE          4   DOF  2
 LARGEST INCREMENT OF DISP.         1.913E-04   AT NODE          3   DOF  2
 LARGEST CORRECTION TO DISP.        1.205E-04   AT NODE          4   DOF  2
          FORCE     EQUILIBRIUM NOT ACHIEVED WITHIN TOLERANCE.

  NUMBER OF EQUATIONS =        44     NUMBER OF RHS =    1
  NUMBER OF FLOATING PT. OPERATIONS =  4.20E+03

     CHECK POINT   START OF SOLVER    

     CHECK POINT  END OF SOLVER       

       ELAPSED USER TIME (SEC)      =   0.0000    
       ELAPSED SYSTEM TIME (SEC)    =   0.0000    
       ELAPSED TOTAL CPU TIME (SEC) =   0.0000    
       ELAPSED WALLCLOCK TIME (SEC) =          0
 

 ***WARNING: THE SYSTEM MATRIX HAS 1 NEGATIVE EIGENVALUES.
[...]
     CHECK POINT   START OF SOLVER    

     CHECK POINT  END OF SOLVER       

       ELAPSED USER TIME (SEC)      =   0.0000    
       ELAPSED SYSTEM TIME (SEC)    =   0.0000    
       ELAPSED TOTAL CPU TIME (SEC) =   0.0000    
       ELAPSED WALLCLOCK TIME (SEC) =          0

               CONVERGENCE CHECKS FOR EQUILIBRIUM ITERATION     1


 AVERAGE FORCE                      1.558E-13   TIME AVG. FORCE       1.961E+03
 LARGEST RESIDUAL FORCE             3.397E-13   AT NODE         12   DOF  2
 LARGEST INCREMENT OF DISP.         9.000E-04   AT NODE         14   DOF  2
 LARGEST CORRECTION TO DISP.        1.417E-17   AT NODE         16   DOF  2
          THERE IS ZERO FORCE     EVERYWHERE

 ITERATION SUMMARY FOR THE INCREMENT:   1 TOTAL ITERATIONS, OF WHICH
   0 ARE SEVERE DISCONTINUITY ITERATIONS AND  1 ARE EQUILIBRIUM ITERATIONS.

 TIME INCREMENT COMPLETED  1.000E-02,  FRACTION OF STEP COMPLETED  0.860    
 STEP TIME COMPLETED       0.860    ,  TOTAL TIME COMPLETED        0.860    


  INCREMENT   113 STARTS. ATTEMPT NUMBER  1, TIME INCREMENT  1.000E-02

  NUMBER OF EQUATIONS =        44     NUMBER OF RHS =    1
  NUMBER OF FLOATING PT. OPERATIONS =  4.20E+03

     CHECK POINT   START OF SOLVER    

     CHECK POINT  END OF SOLVER       

       ELAPSED USER TIME (SEC)      =   0.0000    
       ELAPSED SYSTEM TIME (SEC)    =   0.0000    
       ELAPSED TOTAL CPU TIME (SEC) =   0.0000    
       ELAPSED WALLCLOCK TIME (SEC) =          0

               CONVERGENCE CHECKS FOR EQUILIBRIUM ITERATION     1


 AVERAGE FORCE                      1.734E-13   TIME AVG. FORCE       1.961E+03
 LARGEST RESIDUAL FORCE            -2.341E-13   AT NODE         17   DOF  2
 LARGEST INCREMENT OF DISP.         9.000E-04   AT NODE          3   DOF  2
 LARGEST CORRECTION TO DISP.       -3.446E-19   AT NODE         14   DOF  2
          THERE IS ZERO FORCE     EVERYWHERE

 ITERATION SUMMARY FOR THE INCREMENT:   1 TOTAL ITERATIONS, OF WHICH
   0 ARE SEVERE DISCONTINUITY ITERATIONS AND  1 ARE EQUILIBRIUM ITERATIONS.

 TIME INCREMENT COMPLETED  1.000E-02,  FRACTION OF STEP COMPLETED  0.870    
 STEP TIME COMPLETED       0.870    ,  TOTAL TIME COMPLETED        0.870    


  INCREMENT   114 STARTS. ATTEMPT NUMBER  1, TIME INCREMENT  1.000E-02

  NUMBER OF EQUATIONS =        44     NUMBER OF RHS =    1
  NUMBER OF FLOATING PT. OPERATIONS =  4.20E+03

     CHECK POINT   START OF SOLVER    

     CHECK POINT  END OF SOLVER       

       ELAPSED USER TIME (SEC)      =   0.0000    
       ELAPSED SYSTEM TIME (SEC)    =   0.0000    
       ELAPSED TOTAL CPU TIME (SEC) =   0.0000    
       ELAPSED WALLCLOCK TIME (SEC) =          0

               CONVERGENCE CHECKS FOR EQUILIBRIUM ITERATION     1


 AVERAGE FORCE                      1.688E-13   TIME AVG. FORCE       1.961E+03
 LARGEST RESIDUAL FORCE            -3.124E-13   AT NODE         15   DOF  2
 LARGEST INCREMENT OF DISP.         9.000E-04   AT NODE         23   DOF  2
 LARGEST CORRECTION TO DISP.       -1.488E-17   AT NODE          5   DOF  2
          THERE IS ZERO FORCE     EVERYWHERE

 ITERATION SUMMARY FOR THE INCREMENT:   1 TOTAL ITERATIONS, OF WHICH
   0 ARE SEVERE DISCONTINUITY ITERATIONS AND  1 ARE EQUILIBRIUM ITERATIONS.

 TIME INCREMENT COMPLETED  1.000E-02,  FRACTION OF STEP COMPLETED  0.880    
 STEP TIME COMPLETED       0.880    ,  TOTAL TIME COMPLETED        0.880    


  INCREMENT   115 STARTS. ATTEMPT NUMBER  1, TIME INCREMENT  1.000E-02

  NUMBER OF EQUATIONS =        44     NUMBER OF RHS =    1
  NUMBER OF FLOATING PT. OPERATIONS =  4.20E+03

     CHECK POINT   START OF SOLVER    

     CHECK POINT  END OF SOLVER       

       ELAPSED USER TIME (SEC)      =   0.0000    
       ELAPSED SYSTEM TIME (SEC)    =   0.0000    
       ELAPSED TOTAL CPU TIME (SEC) =   0.0000    
       ELAPSED WALLCLOCK TIME (SEC) =          0

               CONVERGENCE CHECKS FOR EQUILIBRIUM ITERATION     1


 AVERAGE FORCE                      1.506E-13   TIME AVG. FORCE       1.961E+03
 LARGEST RESIDUAL FORCE            -2.455E-13   AT NODE          4   DOF  2
 LARGEST INCREMENT OF DISP.         9.000E-04   AT NODE          8   DOF  2
 LARGEST CORRECTION TO DISP.        1.485E-17   AT NODE          8   DOF  2
          THERE IS ZERO FORCE     EVERYWHERE

 ITERATION SUMMARY FOR THE INCREMENT:   1 TOTAL ITERATIONS, OF WHICH
   0 ARE SEVERE DISCONTINUITY ITERATIONS AND  1 ARE EQUILIBRIUM ITERATIONS.

 TIME INCREMENT COMPLETED  1.000E-02,  FRACTION OF STEP COMPLETED  0.890    
 STEP TIME COMPLETED       0.890    ,  TOTAL TIME COMPLETED        0.890    


  INCREMENT   116 STARTS. ATTEMPT NUMBER  1, TIME INCREMENT  1.000E-02

  NUMBER OF EQUATIONS =        44     NUMBER OF RHS =    1
  NUMBER OF FLOATING PT. OPERATIONS =  4.20E+03

     CHECK POINT   START OF SOLVER    

     CHECK POINT  END OF SOLVER       

       ELAPSED USER TIME (SEC)      =   0.0000    
       ELAPSED SYSTEM TIME (SEC)    =   0.0000    
       ELAPSED TOTAL CPU TIME (SEC) =   0.0000    
       ELAPSED WALLCLOCK TIME (SEC) =          0

               CONVERGENCE CHECKS FOR EQUILIBRIUM ITERATION     1


 AVERAGE FORCE                      1.559E-13   TIME AVG. FORCE       1.961E+03
 LARGEST RESIDUAL FORCE            -2.458E-13   AT NODE          4   DOF  2
 LARGEST INCREMENT OF DISP.         9.000E-04   AT NODE         16   DOF  2
 LARGEST CORRECTION TO DISP.       -1.428E-17   AT NODE         14   DOF  2
          THERE IS ZERO FORCE     EVERYWHERE

 ITERATION SUMMARY FOR THE INCREMENT:   1 TOTAL ITERATIONS, OF WHICH
   0 ARE SEVERE DISCONTINUITY ITERATIONS AND  1 ARE EQUILIBRIUM ITERATIONS.

 TIME INCREMENT COMPLETED  1.000E-02,  FRACTION OF STEP COMPLETED  0.900    
 STEP TIME COMPLETED       0.900    ,  TOTAL TIME COMPLETED        0.900    


  INCREMENT   117 STARTS. ATTEMPT NUMBER  1, TIME INCREMENT  1.000E-02

  NUMBER OF EQUATIONS =        44     NUMBER OF RHS =    1
  NUMBER OF FLOATING PT. OPERATIONS =  4.20E+03

     CHECK POINT   START OF SOLVER    

     CHECK POINT  END OF SOLVER       

       ELAPSED USER TIME (SEC)      =   0.0000    
       ELAPSED SYSTEM TIME (SEC)    =   0.0000    
       ELAPSED TOTAL CPU TIME (SEC) =   0.0000    
       ELAPSED WALLCLOCK TIME (SEC) =          0

               CONVERGENCE CHECKS FOR EQUILIBRIUM ITERATION     1


 AVERAGE FORCE                      1.815E-13   TIME AVG. FORCE       1.961E+03
 LARGEST RESIDUAL FORCE            -2.798E-13   AT NODE         15   DOF  2
 LARGEST INCREMENT OF DISP.         9.000E-04   AT NODE          3   DOF  2
 LARGEST CORRECTION TO DISP.       -1.388E-17   AT NODE         20   DOF  2
          THERE IS ZERO FORCE     EVERYWHERE

 ITERATION SUMMARY FOR THE INCREMENT:   1 TOTAL ITERATIONS, OF WHICH
   0 ARE SEVERE DISCONTINUITY ITERATIONS AND  1 ARE EQUILIBRIUM ITERATIONS.

 TIME INCREMENT COMPLETED  1.000E-02,  FRACTION OF STEP COMPLETED  0.910    
 STEP TIME COMPLETED       0.910    ,  TOTAL TIME COMPLETED        0.910    


  INCREMENT   118 STARTS. ATTEMPT NUMBER  1, TIME INCREMENT  1.000E-02

  NUMBER OF EQUATIONS =        44     NUMBER OF RHS =    1
  NUMBER OF FLOATING PT. OPERATIONS =  4.20E+03

     CHECK POINT   START OF SOLVER    

     CHECK POINT  END OF SOLVER       

       ELAPSED USER TIME (SEC)      =   0.0000    
       ELAPSED SYSTEM TIME (SEC)    =   0.0000    
       ELAPSED TOTAL CPU TIME (SEC) =   0.0000    
       ELAPSED WALLCLOCK TIME (SEC) =          0

               CONVERGENCE CHECKS FOR EQUILIBRIUM ITERATION     1


 AVERAGE FORCE                      1.609E-13   TIME AVG. FORCE       1.961E+03
 LARGEST RESIDUAL FORCE            -2.465E-13   AT NODE          4   DOF  2
 LARGEST INCREMENT OF DISP.         9.000E-04   AT NODE          3   DOF  2
 LARGEST CORRECTION TO DISP.        1.391E-17   AT NODE         21   DOF  2
          THERE IS ZERO FORCE     EVERYWHERE

 ITERATION SUMMARY FOR THE INCREMENT:   1 TOTAL ITERATIONS, OF WHICH
   0 ARE SEVERE DISCONTINUITY ITERATIONS AND  1 ARE EQUILIBRIUM ITERATIONS.

 TIME INCREMENT COMPLETED  1.000E-02,  FRACTION OF STEP COMPLETED  0.920    
 STEP TIME COMPLETED       0.920    ,  TOTAL TIME COMPLETED        0.920    


  INCREMENT   119 STARTS. ATTEMPT NUMBER  1, TIME INCREMENT  1.000E-02

  NUMBER OF EQUATIONS =        44     NUMBER OF RHS =    1
  NUMBER OF FLOATING PT. OPERATIONS =  4.20E+03

     CHECK POINT   START OF SOLVER    

     CHECK POINT  END OF SOLVER       

       ELAPSED USER TIME (SEC)      =  0.10000    
       ELAPSED SYSTEM TIME (SEC)    =   0.0000    
       ELAPSED TOTAL CPU TIME (SEC) =  0.10000    
       ELAPSED WALLCLOCK TIME (SEC) =          0

               CONVERGENCE CHECKS FOR EQUILIBRIUM ITERATION     1


 AVERAGE FORCE                      1.458E-13   TIME AVG. FORCE       1.961E+03
 LARGEST RESIDUAL FORCE             2.775E-13   AT NODE          7   DOF  2
 LARGEST INCREMENT OF DISP.         9.000E-04   AT NODE         19   DOF  2
 LARGEST CORRECTION TO DISP.       -6.505E-19   AT NODE          3   DOF  2
          THERE IS ZERO FORCE     EVERYWHERE

 ITERATION SUMMARY FOR THE INCREMENT:   1 TOTAL ITERATIONS, OF WHICH
   0 ARE SEVERE DISCONTINUITY ITERATIONS AND  1 ARE EQUILIBRIUM ITERATIONS.

 TIME INCREMENT COMPLETED  1.000E-02,  FRACTION OF STEP COMPLETED  0.930    
 STEP TIME COMPLETED       0.930    ,  TOTAL TIME COMPLETED        0.930    


  INCREMENT   120 STARTS. ATTEMPT NUMBER  1, TIME INCREMENT  1.000E-02

  NUMBER OF EQUATIONS =        44     NUMBER OF RHS =    1
  NUMBER OF FLOATING PT. OPERATIONS =  4.20E+03

     CHECK POINT   START OF SOLVER    

     CHECK POINT  END OF SOLVER       

       ELAPSED USER TIME (SEC)      =   0.0000    
       ELAPSED SYSTEM TIME (SEC)    =   0.0000    
       ELAPSED TOTAL CPU TIME (SEC) =   0.0000    
       ELAPSED WALLCLOCK TIME (SEC) =          0

               CONVERGENCE CHECKS FOR EQUILIBRIUM ITERATION     1


 AVERAGE FORCE                      1.594E-13   TIME AVG. FORCE       1.961E+03
 LARGEST RESIDUAL FORCE            -2.253E-13   AT NODE         20   DOF  2
 LARGEST INCREMENT OF DISP.         9.000E-04   AT NODE          7   DOF  2
 LARGEST CORRECTION TO DISP.       -1.389E-17   AT NODE         21   DOF  2
          THERE IS ZERO FORCE     EVERYWHERE

 ITERATION SUMMARY FOR THE INCREMENT:   1 TOTAL ITERATIONS, OF WHICH
   0 ARE SEVERE DISCONTINUITY ITERATIONS AND  1 ARE EQUILIBRIUM ITERATIONS.

 TIME INCREMENT COMPLETED  1.000E-02,  FRACTION OF STEP COMPLETED  0.940    
 STEP TIME COMPLETED       0.940    ,  TOTAL TIME COMPLETED        0.940    


  INCREMENT   121 STARTS. ATTEMPT NUMBER  1, TIME INCREMENT  1.000E-02

  NUMBER OF EQUATIONS =        44     NUMBER OF RHS =    1
  NUMBER OF FLOATING PT. OPERATIONS =  4.20E+03

     CHECK POINT   START OF SOLVER    

     CHECK POINT  END OF SOLVER       

       ELAPSED USER TIME (SEC)      =   0.0000    
       ELAPSED SYSTEM TIME (SEC)    =   0.0000    
       ELAPSED TOTAL CPU TIME (SEC) =   0.0000    
       ELAPSED WALLCLOCK TIME (SEC) =          0

               CONVERGENCE CHECKS FOR EQUILIBRIUM ITERATION     1


 AVERAGE FORCE                      1.631E-13   TIME AVG. FORCE       1.961E+03
 LARGEST RESIDUAL FORCE             3.069E-13   AT NODE         19   DOF  2
 LARGEST INCREMENT OF DISP.         9.000E-04   AT NODE          5   DOF  2
 LARGEST CORRECTION TO DISP.        3.867E-19   AT NODE          5   DOF  2
          THERE IS ZERO FORCE     EVERYWHERE

 ITERATION SUMMARY FOR THE INCREMENT:   1 TOTAL ITERATIONS, OF WHICH
   0 ARE SEVERE DISCONTINUITY ITERATIONS AND  1 ARE EQUILIBRIUM ITERATIONS.

 TIME INCREMENT COMPLETED  1.000E-02,  FRACTION OF STEP COMPLETED  0.950    
 STEP TIME COMPLETED       0.950    ,  TOTAL TIME COMPLETED        0.950    


  INCREMENT   122 STARTS. ATTEMPT NUMBER  1, TIME INCREMENT  1.000E-02

  NUMBER OF EQUATIONS =        44     NUMBER OF RHS =    1
  NUMBER OF FLOATING PT. OPERATIONS =  4.20E+03

     CHECK POINT   START OF SOLVER    

     CHECK POINT  END OF SOLVER       

       ELAPSED USER TIME (SEC)      =   0.0000    
       ELAPSED SYSTEM TIME (SEC)    =   0.0000    
       ELAPSED TOTAL CPU TIME (SEC) =   0.0000    
       ELAPSED WALLCLOCK TIME (SEC) =          0

               CONVERGENCE CHECKS FOR EQUILIBRIUM ITERATION     1


 AVERAGE FORCE                      1.749E-13   TIME AVG. FORCE       1.961E+03
 LARGEST RESIDUAL FORCE            -3.007E-13   AT NODE          7   DOF  2
 LARGEST INCREMENT OF DISP.         9.000E-04   AT NODE          8   DOF  2
 LARGEST CORRECTION TO DISP.        1.397E-17   AT NODE         19   DOF  2
          THERE IS ZERO FORCE     EVERYWHERE

 ITERATION SUMMARY FOR THE INCREMENT:   1 TOTAL ITERATIONS, OF WHICH
   0 ARE SEVERE DISCONTINUITY ITERATIONS AND  1 ARE EQUILIBRIUM ITERATIONS.

 TIME INCREMENT COMPLETED  1.000E-02,  FRACTION OF STEP COMPLETED  0.960    
 STEP TIME COMPLETED       0.960    ,  TOTAL TIME COMPLETED        0.960    


  INCREMENT   123 STARTS. ATTEMPT NUMBER  1, TIME INCREMENT  1.000E-02

  NUMBER OF EQUATIONS =        44     NUMBER OF RHS =    1
  NUMBER OF FLOATING PT. OPERATIONS =  4.20E+03

     CHECK POINT   START OF SOLVER    

     CHECK POINT  END OF SOLVER       

       ELAPSED USER TIME (SEC)      =   0.0000    
       ELAPSED SYSTEM TIME (SEC)    =   0.0000    
       ELAPSED TOTAL CPU TIME (SEC) =   0.0000    
       ELAPSED WALLCLOCK TIME (SEC) =          0

               CONVERGENCE CHECKS FOR EQUILIBRIUM ITERATION     1


 AVERAGE FORCE                      1.621E-13   TIME AVG. FORCE       1.961E+03
 LARGEST RESIDUAL FORCE             2.994E-13   AT NODE         18   DOF  2
 LARGEST INCREMENT OF DISP.         9.000E-04   AT NODE         13   DOF  2
 LARGEST CORRECTION TO DISP.       -1.416E-17   AT NODE         19   DOF  2
          THERE IS ZERO FORCE     EVERYWHERE

 ITERATION SUMMARY FOR THE INCREMENT:   1 TOTAL ITERATIONS, OF WHICH
   0 ARE SEVERE DISCONTINUITY ITERATIONS AND  1 ARE EQUILIBRIUM ITERATIONS.

 TIME INCREMENT COMPLETED  1.000E-02,  FRACTION OF STEP COMPLETED  0.970    
 STEP TIME COMPLETED       0.970    ,  TOTAL TIME COMPLETED        0.970    


  INCREMENT   124 STARTS. ATTEMPT NUMBER  1, TIME INCREMENT  1.000E-02

  NUMBER OF EQUATIONS =        44     NUMBER OF RHS =    1
  NUMBER OF FLOATING PT. OPERATIONS =  4.20E+03

     CHECK POINT   START OF SOLVER    

     CHECK POINT  END OF SOLVER       

       ELAPSED USER TIME (SEC)      =   0.0000    
       ELAPSED SYSTEM TIME (SEC)    =   0.0000    
       ELAPSED TOTAL CPU TIME (SEC) =   0.0000    
       ELAPSED WALLCLOCK TIME (SEC) =          0

               CONVERGENCE CHECKS FOR EQUILIBRIUM ITERATION     1


 AVERAGE FORCE                      1.635E-13   TIME AVG. FORCE       1.961E+03
 LARGEST RESIDUAL FORCE             3.296E-13   AT NODE         13   DOF  2
 LARGEST INCREMENT OF DISP.         9.000E-04   AT NODE         17   DOF  2
 LARGEST CORRECTION TO DISP.        1.414E-17   AT NODE         18   DOF  2
          THERE IS ZERO FORCE     EVERYWHERE

 ITERATION SUMMARY FOR THE INCREMENT:   1 TOTAL ITERATIONS, OF WHICH
   0 ARE SEVERE DISCONTINUITY ITERATIONS AND  1 ARE EQUILIBRIUM ITERATIONS.

 TIME INCREMENT COMPLETED  1.000E-02,  FRACTION OF STEP COMPLETED  0.980    
 STEP TIME COMPLETED       0.980    ,  TOTAL TIME COMPLETED        0.980    


  INCREMENT   125 STARTS. ATTEMPT NUMBER  1, TIME INCREMENT  1.000E-02

  NUMBER OF EQUATIONS =        44     NUMBER OF RHS =    1
  NUMBER OF FLOATING PT. OPERATIONS =  4.20E+03

     CHECK POINT   START OF SOLVER    

     CHECK POINT  END OF SOLVER       

       ELAPSED USER TIME (SEC)      =   0.0000    
       ELAPSED SYSTEM TIME (SEC)    =   0.0000    
       ELAPSED TOTAL CPU TIME (SEC) =   0.0000    
       ELAPSED WALLCLOCK TIME (SEC) =          0

               CONVERGENCE CHECKS FOR EQUILIBRIUM ITERATION     1


 AVERAGE FORCE                      1.640E-13   TIME AVG. FORCE       1.961E+03
 LARGEST RESIDUAL FORCE             3.456E-13   AT NODE         15   DOF  2
 LARGEST INCREMENT OF DISP.         9.000E-04   AT NODE          8   DOF  2
 LARGEST CORRECTION TO DISP.        3.729E-19   AT NODE         13   DOF  2
          THERE IS ZERO FORCE     EVERYWHERE

 ITERATION SUMMARY FOR THE INCREMENT:   1 TOTAL ITERATIONS, OF WHICH
   0 ARE SEVERE DISCONTINUITY ITERATIONS AND  1 ARE EQUILIBRIUM ITERATIONS.

 TIME INCREMENT COMPLETED  1.000E-02,  FRACTION OF STEP COMPLETED  0.990    
 STEP TIME COMPLETED       0.990    ,  TOTAL TIME COMPLETED        0.990    


  INCREMENT   126 STARTS. ATTEMPT NUMBER  1, TIME INCREMENT  1.000E-02

  NUMBER OF EQUATIONS =        44     NUMBER OF RHS =    1
  NUMBER OF FLOATING PT. OPERATIONS =  4.20E+03

     CHECK POINT   START OF SOLVER    

     CHECK POINT  END OF SOLVER       

       ELAPSED USER TIME (SEC)      =   0.0000    
       ELAPSED SYSTEM TIME (SEC)    =   0.0000    
       ELAPSED TOTAL CPU TIME (SEC) =   0.0000    
       ELAPSED WALLCLOCK TIME (SEC) =          0

               CONVERGENCE CHECKS FOR EQUILIBRIUM ITERATION     1


 AVERAGE FORCE                      1.646E-13   TIME AVG. FORCE       1.961E+03
 LARGEST RESIDUAL FORCE            -2.473E-13   AT NODE          4   DOF  2
 LARGEST INCREMENT OF DISP.         9.000E-04   AT NODE         21   DOF  2
 LARGEST CORRECTION TO DISP.       -7.318E-19   AT NODE          8   DOF  2
          THERE IS ZERO FORCE     EVERYWHERE

 ITERATION SUMMARY FOR THE INCREMENT:   1 TOTAL ITERATIONS, OF WHICH
   0 ARE SEVERE DISCONTINUITY ITERATIONS AND  1 ARE EQUILIBRIUM ITERATIONS.

 TIME INCREMENT COMPLETED  1.000E-02,  FRACTION OF STEP COMPLETED   1.00    
 STEP TIME COMPLETED        1.00    ,  TOTAL TIME COMPLETED         1.00    


  INCREMENT   127 STARTS. ATTEMPT NUMBER  1, TIME INCREMENT  2.742E-04

  NUMBER OF EQUATIONS =        44     NUMBER OF RHS =    1
  NUMBER OF FLOATING PT. OPERATIONS =  4.20E+03

     CHECK POINT   START OF SOLVER    

     CHECK POINT  END OF SOLVER       

       ELAPSED USER TIME (SEC)      =   0.0000    
       ELAPSED SYSTEM TIME (SEC)    =   0.0000    
       ELAPSED TOTAL CPU TIME (SEC) =   0.0000    
       ELAPSED WALLCLOCK TIME (SEC) =          0

               CONVERGENCE CHECKS FOR EQUILIBRIUM ITERATION     1


 AVERAGE FORCE                      1.399E-13   TIME AVG. FORCE       1.961E+03
 LARGEST RESIDUAL FORCE            -8.368E-15   AT NODE          9   DOF  2
 LARGEST INCREMENT OF DISP.         2.468E-05   AT NODE          5   DOF  2
 LARGEST CORRECTION TO DISP.        1.735E-17   AT NODE          5   DOF  2
          THERE IS ZERO FORCE     EVERYWHERE

 ITERATION SUMMARY FOR THE INCREMENT:   1 TOTAL ITERATIONS, OF WHICH
   0 ARE SEVERE DISCONTINUITY ITERATIONS AND  1 ARE EQUILIBRIUM ITERATIONS.

 TIME INCREMENT COMPLETED  2.742E-04,  FRACTION OF STEP COMPLETED   1.00    
 STEP TIME COMPLETED        1.00    ,  TOTAL TIME COMPLETED         1.00    


          THE ANALYSIS HAS BEEN COMPLETED



     ANALYSIS SUMMARY:
     TOTAL OF        127  INCREMENTS
                       8  CUTBACKS IN AUTOMATIC INCREMENTATION
                     179  ITERATIONS INCLUDING CONTACT ITERATIONS IF PRESENT
                     179  PASSES THROUGH THE EQUATION SOLVER OF WHICH 
                     179  INVOLVE MATRIX DECOMPOSITION, INCLUDING
                       0  DECOMPOSITION(S) OF THE MASS MATRIX
                       1  REORDERING OF EQUATIONS TO MINIMIZE WAVEFRONT
                       0  ADDITIONAL RESIDUAL EVALUATIONS FOR LINE SEARCHES
                       0  ADDITIONAL OPERATOR EVALUATIONS FOR LINE SEARCHES
                       4  WARNING MESSAGES DURING USER INPUT PROCESSING
                      23  WARNING MESSAGES DURING ANALYSIS
                       0  ANALYSIS WARNINGS ARE NUMERICAL PROBLEM MESSAGES
                      19  ANALYSIS WARNINGS ARE NEGATIVE EIGENVALUE MESSAGES
                       0  ERROR MESSAGES



     JOB TIME SUMMARY
       USER TIME (SEC)      =   1.8000    
       SYSTEM TIME (SEC)    =  0.60000    
       TOTAL CPU TIME (SEC) =   2.4000    
       WALLCLOCK TIME (SEC) =          6
