 Abaqus/Standard 3DEXPERIENCE R2018x                  DATE 07-Nov-2023 TIME 12:49:58
 SUMMARY OF JOB INFORMATION:
 STEP  INC ATT SEVERE EQUIL TOTAL  TOTAL      STEP       INC OF       DOF    IF
               DISCON ITERS ITERS  TIME/    TIME/LPF    TIME/LPF    MONITOR RIKS
               ITERS               FREQ
   1     1   1     0     1     1  0.00500    0.00500    0.005000  
   1     2   1     0     2     2  0.0100     0.0100     0.005000  
   1     3   1     0     1     1  0.0175     0.0175     0.007500  
   1     4   1     0     1     1  0.0275     0.0275     0.01000   
   1     5   1     0     1     1  0.0375     0.0375     0.01000   
   1     6   1     0     1     1  0.0475     0.0475     0.01000   
   1     7   1     0     1     1  0.0575     0.0575     0.01000   
   1     8   1     0     1     1  0.0675     0.0675     0.01000   
   1     9   1     0     1     1  0.0775     0.0775     0.01000   
   1    10   1     0     1     1  0.0875     0.0875     0.01000   
   1    11   1     0     1     1  0.0975     0.0975     0.01000   
   1    12   1     0     1     1  0.107      0.107      0.01000   
   1    13   1     0     1     1  0.117      0.117      0.01000   
   1    14   1     0     1     1  0.127      0.127      0.01000   
   1    15   1     0     1     1  0.137      0.137      0.01000   
   1    16   1     0     1     1  0.147      0.147      0.01000   
   1    17   1     0     1     1  0.158      0.158      0.01000   
   1    18   1     0     1     1  0.168      0.168      0.01000   
   1    19   1     0     1     1  0.178      0.178      0.01000   
   1    20   1     0     1     1  0.188      0.188      0.01000   
   1    21   1     0     1     1  0.198      0.198      0.01000   
   1    22   1     0     1     1  0.208      0.208      0.01000   
   1    23   1     0     1     1  0.218      0.218      0.01000   
   1    24   1     0     1     1  0.228      0.228      0.01000   
   1    25   1     0     1     1  0.238      0.238      0.01000   
   1    26   1     0     1     1  0.248      0.248      0.01000   
   1    27   1     0     1     1  0.258      0.258      0.01000   
   1    28   1     0     1     1  0.268      0.268      0.01000   
   1    29   1     0     1     1  0.278      0.278      0.01000   
   1    30   1     0     1     1  0.288      0.288      0.01000   
   1    31   1     0     1     1  0.298      0.298      0.01000   
   1    32   1     0     1     1  0.308      0.308      0.01000   
   1    33   1     0     1     1  0.318      0.318      0.01000   
   1    34   1     0     1     1  0.328      0.328      0.01000   
   1    35   1     0     1     1  0.338      0.338      0.01000   
   1    36   1     0     3     3  0.348      0.348      0.01000   
   1    37   1     0     5     5  0.358      0.358      0.01000   
   1    38   1     0     1     1  0.368      0.368      0.01000   
   1    39   1     0     1     1  0.378      0.378      0.01000   
   1    40   1     0     1     1  0.388      0.388      0.01000   
   1    41   1     0     1     1  0.398      0.398      0.01000   
   1    42   1     0     1     1  0.408      0.408      0.01000   
   1    43   1     0     1     1  0.418      0.418      0.01000   
   1    44   1     0     1     1  0.428      0.428      0.01000   
   1    45   1     0     1     1  0.438      0.438      0.01000   
   1    46   1U    0     4     4  0.438      0.438      0.01000   
   1    46   2     0     1     1  0.440      0.440      0.002500  
   1    47   1U    0     4     4  0.440      0.440      0.003750  
   1    47   2     0     1     1  0.441      0.441      0.0009375 
   1    48   1     0     1     1  0.442      0.442      0.001406  
   1    49   1U    0     4     4  0.442      0.442      0.002109  
   1    49   2     0     1     1  0.443      0.443      0.0005273 
   1    50   1U    0     4     4  0.443      0.443      0.0007910 
   1    50   2     0     1     1  0.443      0.443      0.0001978 
   1    51   1     0     1     1  0.443      0.443      0.0002966 
   1    52   1U    0     5     5  0.443      0.443      0.0004449 
   1    52   2U    0     5     5  0.443      0.443      0.0001112 
   1    52   3     0     1     1  0.443      0.443      2.781e-05 
   1    53   1     0     1     1  0.443      0.443      4.171e-05 
   1    54   1     0     2     2  0.443      0.443      6.257e-05 
   1    55   1U    0     7     7  0.443      0.443      9.386e-05 
   1    55   2     0     1     1  0.444      0.444      2.346e-05 
   1    56   1     0     1     1  0.444      0.444      3.520e-05 
   1    57   1     0     2     2  0.444      0.444      5.279e-05 
   1    58   1     0     4     4  0.444      0.444      7.919e-05 
   1    59   1     0     3     3  0.444      0.444      0.0001188 
   1    60   1U    0     4     4  0.444      0.444      0.0001782 
   1    60   2     0     1     1  0.444      0.444      4.454e-05 
   1    61   1     0     2     2  0.444      0.444      6.682e-05 
   1    62   1     0     1     1  0.444      0.444      0.0001002 
   1    63   1     0     1     1  0.444      0.444      0.0001503 
   1    64   1     0     1     1  0.444      0.444      0.0002255 
   1    65   1     0     1     1  0.445      0.445      0.0003383 
   1    66   1     0     1     1  0.445      0.445      0.0005074 
   1    67   1     0     1     1  0.446      0.446      0.0007611 
   1    68   1     0     1     1  0.447      0.447      0.001142  
   1    69   1     0     1     1  0.449      0.449      0.001712  
   1    70   1     0     1     1  0.451      0.451      0.002569  
   1    71   1     0     1     1  0.455      0.455      0.003853  
   1    72   1     0     1     1  0.461      0.461      0.005780  
   1    73   1     0     1     1  0.470      0.470      0.008669  
   1    74   1     0     1     1  0.480      0.480      0.01000   
   1    75   1     0     1     1  0.490      0.490      0.01000   
   1    76   1     0     1     1  0.500      0.500      0.01000   
   1    77   1     0     1     1  0.510      0.510      0.01000   
   1    78   1     0     1     1  0.520      0.520      0.01000   
   1    79   1     0     1     1  0.530      0.530      0.01000   
   1    80   1     0     1     1  0.540      0.540      0.01000   
   1    81   1     0     1     1  0.550      0.550      0.01000   
   1    82   1     0     1     1  0.560      0.560      0.01000   
   1    83   1     0     1     1  0.570      0.570      0.01000   
   1    84   1     0     1     1  0.580      0.580      0.01000   
   1    85   1     0     1     1  0.590      0.590      0.01000   
   1    86   1     0     1     1  0.600      0.600      0.01000   
   1    87   1     0     1     1  0.610      0.610      0.01000   
   1    88   1     0     1     1  0.620      0.620      0.01000   
   1    89   1     0     1     1  0.630      0.630      0.01000   
   1    90   1     0     1     1  0.640      0.640      0.01000   
   1    91   1     0     1     1  0.650      0.650      0.01000   
   1    92   1     0     1     1  0.660      0.660      0.01000   
   1    93   1     0     1     1  0.670      0.670      0.01000   
   1    94   1     0     1     1  0.680      0.680      0.01000   
   1    95   1     0     1     1  0.690      0.690      0.01000   
   1    96   1     0     1     1  0.700      0.700      0.01000   
   1    97   1     0     1     1  0.710      0.710      0.01000   
   1    98   1     0     1     1  0.720      0.720      0.01000   
   1    99   1     0     1     1  0.730      0.730      0.01000   
   1   100   1     0     1     1  0.740      0.740      0.01000   
   1   101   1     0     1     1  0.750      0.750      0.01000   
   1   102   1     0     1     1  0.760      0.760      0.01000   
   1   103   1     0     1     1  0.770      0.770      0.01000   
   1   104   1     0     1     1  0.780      0.780      0.01000   
   1   105   1     0     1     1  0.790      0.790      0.01000   
   1   106   1     0     1     1  0.800      0.800      0.01000   
   1   107   1     0     1     1  0.810      0.810      0.01000   
   1   108   1     0     1     1  0.820      0.820      0.01000   
   1   109   1     0     1     1  0.830      0.830      0.01000   
   1   110   1     0     1     1  0.840      0.840      0.01000   
   1   111   1     0     1     1  0.850      0.850      0.01000   
   1   112   1     0     1     1  0.860      0.860      0.01000   
   1   113   1     0     1     1  0.870      0.870      0.01000   
   1   114   1     0     1     1  0.880      0.880      0.01000   
   1   115   1     0     1     1  0.890      0.890      0.01000   
   1   116   1     0     1     1  0.900      0.900      0.01000   
   1   117   1     0     1     1  0.910      0.910      0.01000   
   1   118   1     0     1     1  0.920      0.920      0.01000   
   1   119   1     0     1     1  0.930      0.930      0.01000   
   1   120   1     0     1     1  0.940      0.940      0.01000   
   1   121   1     0     1     1  0.950      0.950      0.01000   
   1   122   1     0     1     1  0.960      0.960      0.01000   
   1   123   1     0     1     1  0.970      0.970      0.01000   
   1   124   1     0     1     1  0.980      0.980      0.01000   
   1   125   1     0     1     1  0.990      0.990      0.01000   
   1   126   1     0     1     1  1.00       1.00       0.01000   
   1   127   1     0     1     1  1.00       1.00       0.0002742 
                          
 THE ANALYSIS HAS COMPLETED SUCCESSFULLY
