1

   Abaqus 3DEXPERIENCE R2018x                                  Date 07-Nov-2023   Time 11:19:00
   For use by AALTO UNIVERSITY under license from Dassault Systemes or its subsidiary.

 traction Hydrogen                                                               
                                                                                 
 STEP    1     INCREMENT     1     STEP TIME    0.00    


                        S T E P       1     S T A T I C   A N A L Y S I S


                                                                                          

     AUTOMATIC TIME CONTROL WITH -
          A SUGGESTED INITIAL TIME INCREMENT OF                0.100    
          AND A TOTAL TIME PERIOD OF                            1.00    
          THE MINIMUM TIME INCREMENT ALLOWED IS                1.000E-05
          THE MAXIMUM TIME INCREMENT ALLOWED IS                0.100    

     LINEAR EQUATION SOLVER TYPE         DIRECT SPARSE

 CONVERGENCE TOLERANCE PARAMETERS FOR FORCE    
     CRITERION FOR RESIDUAL FORCE     FOR A NONLINEAR PROBLEM          5.000E-03
     CRITERION FOR DISP.    CORRECTION IN A NONLINEAR PROBLEM          1.000E-02
     INITIAL VALUE OF TIME AVERAGE FORCE                               1.000E-02
     AVERAGE FORCE     IS TIME AVERAGE FORCE    
     ALTERNATE CRIT. FOR RESIDUAL FORCE     FOR A NONLINEAR PROBLEM    2.000E-02
     CRITERION FOR ZERO FORCE     RELATIVE TO TIME AVRG. FORCE         1.000E-05
     CRITERION FOR RESIDUAL FORCE     WHEN THERE IS ZERO FLUX          1.000E-05
     CRITERION FOR DISP.    CORRECTION WHEN THERE IS ZERO FLUX         1.000E-03
     CRITERION FOR RESIDUAL FORCE     FOR A LINEAR INCREMENT           1.000E-08
     FIELD CONVERSION RATIO                                             1.00    
     CRITERION FOR ZERO FORCE     REL. TO TIME AVRG. MAX. FORCE        1.000E-05
     CRITERION FOR ZERO DISP.    RELATIVE TO CHARACTERISTIC LENGTH     1.000E-08

 CONVERGENCE TOLERANCE PARAMETERS FOR MOMENT   
     CRITERION FOR RESIDUAL MOMENT    FOR A NONLINEAR PROBLEM          5.000E-03
     CRITERION FOR ROTATION CORRECTION IN A NONLINEAR PROBLEM          1.000E-02
     INITIAL VALUE OF TIME AVERAGE MOMENT                              1.000E-02
     AVERAGE MOMENT    IS TIME AVERAGE MOMENT   
     ALTERNATE CRIT. FOR RESIDUAL MOMENT    FOR A NONLINEAR PROBLEM    2.000E-02
     CRITERION FOR ZERO MOMENT    RELATIVE TO TIME AVRG. MOMENT        1.000E-05
     CRITERION FOR RESIDUAL MOMENT    WHEN THERE IS ZERO FLUX          1.000E-05
     CRITERION FOR ROTATION CORRECTION WHEN THERE IS ZERO FLUX         1.000E-03
     CRITERION FOR RESIDUAL MOMENT    FOR A LINEAR INCREMENT           1.000E-08
     FIELD CONVERSION RATIO                                             1.00    
     CRITERION FOR ZERO MOMENT    REL. TO TIME AVRG. MAX. MOMENT       1.000E-05

     VOLUMETRIC STRAIN COMPATIBILITY TOLERANCE FOR HYBRID SOLIDS       1.000E-05
     AXIAL STRAIN COMPATIBILITY TOLERANCE FOR HYBRID BEAMS             1.000E-05
     TRANS. SHEAR STRAIN COMPATIBILITY TOLERANCE FOR HYBRID BEAMS      1.000E-05
     SOFT CONTACT CONSTRAINT COMPATIBILITY TOLERANCE FOR P>P0          5.000E-03
     SOFT CONTACT CONSTRAINT COMPATIBILITY TOLERANCE FOR P=0.0         0.100    
     CONTACT FORCE ERROR TOLERANCE FOR CONVERT SDI=YES                 1.00    
     DISPLACEMENT COMPATIBILITY TOLERANCE FOR DCOUP ELEMENTS           1.000E-05
     ROTATION COMPATIBILITY TOLERANCE FOR DCOUP ELEMENTS               1.000E-05

 EQUILIBRIUM WILL BE CHECKED FOR SEVERE DISCONTINUITY ITERATIONS

 TIME INCREMENTATION CONTROL PARAMETERS:
     FIRST EQUILIBRIUM ITERATION FOR CONSECUTIVE DIVERGENCE CHECK              4
     EQUILIBRIUM ITERATION AT WHICH LOG. CONVERGENCE RATE CHECK BEGINS         8
     EQUILIBRIUM ITERATION AFTER WHICH ALTERNATE RESIDUAL IS USED              9
     MAXIMUM EQUILIBRIUM ITERATIONS ALLOWED                                   16
     EQUILIBRIUM ITERATION COUNT FOR CUT-BACK IN NEXT INCREMENT               10
     MAXIMUM EQUILIB. ITERS IN TWO INCREMENTS FOR TIME INCREMENT INCREASE      4
     MAXIMUM ITERATIONS FOR SEVERE DISCONTINUITIES                            50
     MAXIMUM ATTEMPTS ALLOWED IN AN INCREMENT                                  5
     MAXIMUM DISCON. ITERS IN TWO INCREMENTS FOR TIME INCREMENT INCREASE      50
     MAXIMUM CONTACT AUGMENTATIONS FOR *SURFACE BEHAVIOR,AUGMENTED LAGRANGE   50
     CUT-BACK FACTOR AFTER DIVERGENCE                                 0.2500    
     CUT-BACK FACTOR FOR TOO SLOW CONVERGENCE                         0.5000    
     CUT-BACK FACTOR AFTER TOO MANY EQUILIBRIUM ITERATIONS            0.7500    
     CUT-BACK FACTOR AFTER TOO MANY SEVERE DISCONTINUITY ITERATIONS   0.2500    
     CUT-BACK FACTOR AFTER PROBLEMS IN ELEMENT ASSEMBLY               0.2500    
     INCREASE FACTOR AFTER TWO INCREMENTS THAT CONVERGE QUICKLY        1.500    
     MAX. TIME INCREMENT INCREASE FACTOR ALLOWED                       1.500    
     MAX. TIME INCREMENT INCREASE FACTOR ALLOWED (DYNAMICS)            1.250    
     MAX. TIME INCREMENT INCREASE FACTOR ALLOWED (DIFFUSION)           2.000    
     MINIMUM TIME INCREMENT RATIO FOR EXTRAPOLATION TO OCCUR          0.1000    
     MAX. RATIO OF TIME INCREMENT TO STABILITY LIMIT                   1.000    
     FRACTION OF STABILITY LIMIT FOR NEW TIME INCREMENT               0.9500    
     TIME INCREMENT INCREASE FACTOR BEFORE A TIME POINT                1.000    
     GLOBAL STABILIZATION CONTROL IS NOT USED

          PRINT OF INCREMENT NUMBER, TIME, ETC., EVERY    1  INCREMENTS

     THE MAXIMUM NUMBER OF INCREMENTS IN THIS STEP IS                     500

     LINEAR EXTRAPOLATION WILL BE USED

     CHARACTERISTIC ELEMENT LENGTH     0.117    

     DETAILS REGARDING ACTUAL SOLUTION WAVEFRONT REQUESTED

     DETAILED OUTPUT OF DIAGNOSTICS TO DATABASE REQUESTED

     PRINT OF INCREMENT NUMBER, TIME, ETC., TO THE MESSAGE FILE EVERY     1  INCREMENTS

     ELEMENT OPERATIONS WILL BE CARRIED OUT IN PARALLEL USING  12 PROCESSORS

     PARALLEL CONTACT TRACKING ENABLED


     COLLECTING MODEL CONSTRAINT INFORMATION FOR OVERCONSTRAINT CHECKS

     COLLECTING STEP CONSTRAINT INFORMATION FOR OVERCONSTRAINT CHECKS
  
     ASYNCHRONOUS OUTPUT DATABASE FRAME FLUSH STARTED
  


  INCREMENT     1 STARTS. ATTEMPT NUMBER  1, TIME INCREMENT  0.100    
 
     INITIAL ELEMENT LOAD BALANCE
        COMPUTE NODE   1   PROCESS    NUMBER OF ELEMENTS
                              1            512
                              2            768
                              3            597
                              4            768
                              5            768
                              6            768
                              7            768
                              8            256
                              9            512
                             10            768
                             11            512
                             12            768

  NUMBER OF EQUATIONS =     15594     NUMBER OF RHS =    1
  NUMBER OF FLOATING PT. OPERATIONS =  9.37E+07

  USING THE DIRECT SOLVER WITH  12 PROCESSORS

     CHECK POINT   START OF SOLVER    

     CHECK POINT  END OF SOLVER       

       ELAPSED USER TIME (SEC)      =  0.20000    
       ELAPSED SYSTEM TIME (SEC)    =  0.10000    
       ELAPSED TOTAL CPU TIME (SEC) =  0.30000    
       ELAPSED WALLCLOCK TIME (SEC) =          0

               CONVERGENCE CHECKS FOR EQUILIBRIUM ITERATION     1


 AVERAGE FORCE                       5.58       TIME AVG. FORCE        5.58    
 LARGEST RESIDUAL FORCE             1.369E-11   AT NODE     197025   DOF  1
 LARGEST INCREMENT OF DISP.         5.018E-03   AT NODE    1377857   DOF  2
 LARGEST CORRECTION TO DISP.        5.018E-03   AT NODE    1377857   DOF  2
          THE FORCE     EQUILIBRIUM RESPONSE WAS LINEAR IN THIS INCREMENT

 AVERAGE MOMENT                     1.781E-17   TIME AVG. MOMENT      0.654    
                                                (FROM FORCE     FIELD)
 LARGEST RESIDUAL MOMENT            3.557E-17   AT NODE   50000001   DOF  6
 LARGEST INCREMENT OF ROTATION      2.714E-04   AT NODE   50000001   DOF  6
 LARGEST CORRECTION TO ROTATION     2.714E-04   AT NODE   50000001   DOF  6
          THERE IS ZERO MOMENT    EVERYWHERE

 ITERATION SUMMARY FOR THE INCREMENT:   1 TOTAL ITERATIONS, OF WHICH
   0 ARE SEVERE DISCONTINUITY ITERATIONS AND  1 ARE EQUILIBRIUM ITERATIONS.

 TIME INCREMENT COMPLETED  0.100    ,  FRACTION OF STEP COMPLETED  0.100    
 STEP TIME COMPLETED       0.100    ,  TOTAL TIME COMPLETED        0.100    
  
     ASYNCHRONOUS OUTPUT DATABASE FRAME FLUSH STARTED
  


  INCREMENT     2 STARTS. ATTEMPT NUMBER  1, TIME INCREMENT  0.100    

  NUMBER OF EQUATIONS =     15594     NUMBER OF RHS =    1
  NUMBER OF FLOATING PT. OPERATIONS =  9.37E+07

  USING THE DIRECT SOLVER WITH  12 PROCESSORS

     CHECK POINT   START OF SOLVER    

     CHECK POINT  END OF SOLVER       

       ELAPSED USER TIME (SEC)      =  0.10000    
       ELAPSED SYSTEM TIME (SEC)    =   0.0000    
       ELAPSED TOTAL CPU TIME (SEC) =  0.10000    
       ELAPSED WALLCLOCK TIME (SEC) =          0

               CONVERGENCE CHECKS FOR EQUILIBRIUM ITERATION     1


 AVERAGE FORCE                       11.2       TIME AVG. FORCE        8.37    
 LARGEST RESIDUAL FORCE            -4.601E-12   AT NODE    1705313   DOF  2
 LARGEST INCREMENT OF DISP.         5.018E-03   AT NODE    1377857   DOF  2
 LARGEST CORRECTION TO DISP.        1.058E-15   AT NODE        609   DOF  1
          THE FORCE     EQUILIBRIUM RESPONSE WAS LINEAR IN THIS INCREMENT

 AVERAGE MOMENT                     5.426E-17   TIME AVG. MOMENT      0.654    
                                                (FROM FORCE     FIELD)
 LARGEST RESIDUAL MOMENT           -1.084E-16   AT NODE   50000001   DOF  6
 LARGEST INCREMENT OF ROTATION      2.714E-04   AT NODE   50000001   DOF  6
 LARGEST CORRECTION TO ROTATION    -1.468E-17   AT NODE   50000001   DOF  6
          THERE IS ZERO MOMENT    EVERYWHERE

 ITERATION SUMMARY FOR THE INCREMENT:   1 TOTAL ITERATIONS, OF WHICH
   0 ARE SEVERE DISCONTINUITY ITERATIONS AND  1 ARE EQUILIBRIUM ITERATIONS.

 TIME INCREMENT COMPLETED  0.100    ,  FRACTION OF STEP COMPLETED  0.200    
 STEP TIME COMPLETED       0.200    ,  TOTAL TIME COMPLETED        0.200    
  
     ASYNCHRONOUS OUTPUT DATABASE FRAME FLUSH STARTED
  


  INCREMENT     3 STARTS. ATTEMPT NUMBER  1, TIME INCREMENT  0.100    

  NUMBER OF EQUATIONS =     15594     NUMBER OF RHS =    1
  NUMBER OF FLOATING PT. OPERATIONS =  9.37E+07

  USING THE DIRECT SOLVER WITH  12 PROCESSORS

     CHECK POINT   START OF SOLVER    

     CHECK POINT  END OF SOLVER       

       ELAPSED USER TIME (SEC)      =  0.10000    
       ELAPSED SYSTEM TIME (SEC)    =   0.0000    
       ELAPSED TOTAL CPU TIME (SEC) =  0.10000    
       ELAPSED WALLCLOCK TIME (SEC) =          0

               CONVERGENCE CHECKS FOR EQUILIBRIUM ITERATION     1


 AVERAGE FORCE                       16.8       TIME AVG. FORCE        11.2    
 LARGEST RESIDUAL FORCE             0.962       AT NODE       2688   DOF  2
 LARGEST INCREMENT OF DISP.         5.018E-03   AT NODE    1377857   DOF  2
 LARGEST CORRECTION TO DISP.        1.797E-06   AT NODE       2689   DOF  2
          FORCE     EQUILIBRIUM NOT ACHIEVED WITHIN TOLERANCE.

 AVERAGE MOMENT                     5.426E-17   TIME AVG. MOMENT      0.982    
                                                (FROM FORCE     FIELD)
 LARGEST RESIDUAL MOMENT            1.084E-16   AT NODE   50000001   DOF  6
 LARGEST INCREMENT OF ROTATION      2.714E-04   AT NODE   50000001   DOF  6
 LARGEST CORRECTION TO ROTATION    -2.898E-09   AT NODE   50000001   DOF  6
          THERE IS ZERO MOMENT    EVERYWHERE

  NUMBER OF EQUATIONS =     15594     NUMBER OF RHS =    1
  NUMBER OF FLOATING PT. OPERATIONS =  9.37E+07

  USING THE DIRECT SOLVER WITH  12 PROCESSORS

     CHECK POINT   START OF SOLVER    

     CHECK POINT  END OF SOLVER       

       ELAPSED USER TIME (SEC)      =  0.20000    
       ELAPSED SYSTEM TIME (SEC)    =  0.10000    
       ELAPSED TOTAL CPU TIME (SEC) =  0.30000    
       ELAPSED WALLCLOCK TIME (SEC) =          1

               CONVERGENCE CHECKS FOR EQUILIBRIUM ITERATION     2


 AVERAGE FORCE                       16.8       TIME AVG. FORCE        11.2    
 LARGEST RESIDUAL FORCE            -4.576E-03   AT NODE        641   DOF  1
 LARGEST INCREMENT OF DISP.         5.018E-03   AT NODE    1377857   DOF  2
 LARGEST CORRECTION TO DISP.        9.356E-07   AT NODE       2689   DOF  2
          THE FORCE     EQUILIBRIUM EQUATIONS HAVE CONVERGED

 AVERAGE MOMENT                     1.085E-16   TIME AVG. MOMENT      0.982    
                                                (FROM FORCE     FIELD)
 LARGEST RESIDUAL MOMENT           -2.168E-16   AT NODE   50000001   DOF  6
 LARGEST INCREMENT OF ROTATION      2.714E-04   AT NODE   50000001   DOF  6
 LARGEST CORRECTION TO ROTATION    -1.465E-09   AT NODE   50000001   DOF  6
          THERE IS ZERO MOMENT    EVERYWHERE

 ITERATION SUMMARY FOR THE INCREMENT:   2 TOTAL ITERATIONS, OF WHICH
   0 ARE SEVERE DISCONTINUITY ITERATIONS AND  2 ARE EQUILIBRIUM ITERATIONS.

 TIME INCREMENT COMPLETED  0.100    ,  FRACTION OF STEP COMPLETED  0.300    
 STEP TIME COMPLETED       0.300    ,  TOTAL TIME COMPLETED        0.300    
  
     ASYNCHRONOUS OUTPUT DATABASE FRAME FLUSH STARTED
  


  INCREMENT     4 STARTS. ATTEMPT NUMBER  1, TIME INCREMENT  0.100    

  NUMBER OF EQUATIONS =     15594     NUMBER OF RHS =    1
  NUMBER OF FLOATING PT. OPERATIONS =  9.37E+07

  USING THE DIRECT SOLVER WITH  12 PROCESSORS

     CHECK POINT   START OF SOLVER    

     CHECK POINT  END OF SOLVER       

       ELAPSED USER TIME (SEC)      =  0.30000    
       ELAPSED SYSTEM TIME (SEC)    =  0.10000    
       ELAPSED TOTAL CPU TIME (SEC) =  0.40000    
       ELAPSED WALLCLOCK TIME (SEC) =          0

               CONVERGENCE CHECKS FOR EQUILIBRIUM ITERATION     1


 AVERAGE FORCE                       22.3       TIME AVG. FORCE        14.0    
 LARGEST RESIDUAL FORCE              2.41       AT NODE       2690   DOF  2
 LARGEST INCREMENT OF DISP.         5.018E-03   AT NODE    1377857   DOF  2
 LARGEST CORRECTION TO DISP.        3.962E-05   AT NODE       2690   DOF  2
          FORCE     EQUILIBRIUM NOT ACHIEVED WITHIN TOLERANCE.

 AVERAGE MOMENT                     3.040E-21   TIME AVG. MOMENT       1.31    
                                                (FROM FORCE     FIELD)
 LARGEST RESIDUAL MOMENT            6.081E-21   AT NODE   50000001   DOF  6
 LARGEST INCREMENT OF ROTATION      2.713E-04   AT NODE   50000001   DOF  6
 LARGEST CORRECTION TO ROTATION    -8.872E-08   AT NODE   50000001   DOF  6
          THERE IS ZERO MOMENT    EVERYWHERE

  NUMBER OF EQUATIONS =     15594     NUMBER OF RHS =    1
  NUMBER OF FLOATING PT. OPERATIONS =  9.37E+07

  USING THE DIRECT SOLVER WITH  12 PROCESSORS

     CHECK POINT   START OF SOLVER    

     CHECK POINT  END OF SOLVER       

       ELAPSED USER TIME (SEC)      =  0.20000    
       ELAPSED SYSTEM TIME (SEC)    =  0.10000    
       ELAPSED TOTAL CPU TIME (SEC) =  0.30000    
       ELAPSED WALLCLOCK TIME (SEC) =          0

               CONVERGENCE CHECKS FOR EQUILIBRIUM ITERATION     2


 AVERAGE FORCE                       22.3       TIME AVG. FORCE        14.0    
 LARGEST RESIDUAL FORCE             3.262E-02   AT NODE       2690   DOF  2
 LARGEST INCREMENT OF DISP.         5.018E-03   AT NODE    1377857   DOF  2
 LARGEST CORRECTION TO DISP.        4.522E-06   AT NODE       2690   DOF  2
          THE FORCE     EQUILIBRIUM EQUATIONS HAVE CONVERGED

 AVERAGE MOMENT                     1.922E-22   TIME AVG. MOMENT       1.31    
                                                (FROM FORCE     FIELD)
 LARGEST RESIDUAL MOMENT            3.844E-22   AT NODE   50000001   DOF  6
 LARGEST INCREMENT OF ROTATION      2.713E-04   AT NODE   50000001   DOF  6
 LARGEST CORRECTION TO ROTATION    -5.608E-09   AT NODE   50000001   DOF  6
          THERE IS ZERO MOMENT    EVERYWHERE

 ITERATION SUMMARY FOR THE INCREMENT:   2 TOTAL ITERATIONS, OF WHICH
   0 ARE SEVERE DISCONTINUITY ITERATIONS AND  2 ARE EQUILIBRIUM ITERATIONS.

 TIME INCREMENT COMPLETED  0.100    ,  FRACTION OF STEP COMPLETED  0.400    
 STEP TIME COMPLETED       0.400    ,  TOTAL TIME COMPLETED        0.400    
  
     ASYNCHRONOUS OUTPUT DATABASE FRAME FLUSH STARTED
  


  INCREMENT     5 STARTS. ATTEMPT NUMBER  1, TIME INCREMENT  0.100    

  NUMBER OF EQUATIONS =     15594     NUMBER OF RHS =    1
  NUMBER OF FLOATING PT. OPERATIONS =  9.37E+07

  USING THE DIRECT SOLVER WITH  12 PROCESSORS

     CHECK POINT   START OF SOLVER    

     CHECK POINT  END OF SOLVER       

       ELAPSED USER TIME (SEC)      =  0.70000    
       ELAPSED SYSTEM TIME (SEC)    =  0.10000    
       ELAPSED TOTAL CPU TIME (SEC) =  0.80000    
       ELAPSED WALLCLOCK TIME (SEC) =          0

               CONVERGENCE CHECKS FOR EQUILIBRIUM ITERATION     1


 AVERAGE FORCE                       27.9       TIME AVG. FORCE        16.7    
 LARGEST RESIDUAL FORCE            -0.593       AT NODE       4736   DOF  1
 LARGEST INCREMENT OF DISP.         5.018E-03   AT NODE    1377857   DOF  2
 LARGEST CORRECTION TO DISP.        3.188E-05   AT NODE       2691   DOF  2
          FORCE     EQUILIBRIUM NOT ACHIEVED WITHIN TOLERANCE.

 AVERAGE MOMENT                     1.085E-16   TIME AVG. MOMENT       1.64    
                                                (FROM FORCE     FIELD)
 LARGEST RESIDUAL MOMENT            2.168E-16   AT NODE   50000001   DOF  6
 LARGEST INCREMENT OF ROTATION      2.712E-04   AT NODE   50000001   DOF  6
 LARGEST CORRECTION TO ROTATION    -7.629E-08   AT NODE   50000001   DOF  6
          THERE IS ZERO MOMENT    EVERYWHERE

  NUMBER OF EQUATIONS =     15594     NUMBER OF RHS =    1
  NUMBER OF FLOATING PT. OPERATIONS =  9.37E+07

  USING THE DIRECT SOLVER WITH  12 PROCESSORS

     CHECK POINT   START OF SOLVER    

     CHECK POINT  END OF SOLVER       

       ELAPSED USER TIME (SEC)      =  0.30000    
       ELAPSED SYSTEM TIME (SEC)    =   0.0000    
       ELAPSED TOTAL CPU TIME (SEC) =  0.30000    
       ELAPSED WALLCLOCK TIME (SEC) =          0

               CONVERGENCE CHECKS FOR EQUILIBRIUM ITERATION     2


 AVERAGE FORCE                       27.9       TIME AVG. FORCE        16.7    
 LARGEST RESIDUAL FORCE            -2.530E-03   AT NODE       4736   DOF  1
 LARGEST INCREMENT OF DISP.         5.018E-03   AT NODE    1377857   DOF  2
 LARGEST CORRECTION TO DISP.        1.154E-06   AT NODE       2691   DOF  2
          THE FORCE     EQUILIBRIUM EQUATIONS HAVE CONVERGED

 AVERAGE MOMENT                     1.085E-16   TIME AVG. MOMENT       1.64    
                                                (FROM FORCE     FIELD)
 LARGEST RESIDUAL MOMENT           -2.168E-16   AT NODE   50000001   DOF  6
 LARGEST INCREMENT OF ROTATION      2.712E-04   AT NODE   50000001   DOF  6
 LARGEST CORRECTION TO ROTATION    -1.741E-09   AT NODE   50000001   DOF  6
          THERE IS ZERO MOMENT    EVERYWHERE

 ITERATION SUMMARY FOR THE INCREMENT:   2 TOTAL ITERATIONS, OF WHICH
   0 ARE SEVERE DISCONTINUITY ITERATIONS AND  2 ARE EQUILIBRIUM ITERATIONS.

 TIME INCREMENT COMPLETED  0.100    ,  FRACTION OF STEP COMPLETED  0.500    
 STEP TIME COMPLETED       0.500    ,  TOTAL TIME COMPLETED        0.500    
  
     ASYNCHRONOUS OUTPUT DATABASE FRAME FLUSH STARTED
  


  INCREMENT     6 STARTS. ATTEMPT NUMBER  1, TIME INCREMENT  0.100    

  NUMBER OF EQUATIONS =     15594     NUMBER OF RHS =    1
  NUMBER OF FLOATING PT. OPERATIONS =  9.37E+07

  USING THE DIRECT SOLVER WITH  12 PROCESSORS

     CHECK POINT   START OF SOLVER    

     CHECK POINT  END OF SOLVER       

       ELAPSED USER TIME (SEC)      =  0.30000    
       ELAPSED SYSTEM TIME (SEC)    =   0.0000    
       ELAPSED TOTAL CPU TIME (SEC) =  0.30000    
       ELAPSED WALLCLOCK TIME (SEC) =          0

               CONVERGENCE CHECKS FOR EQUILIBRIUM ITERATION     1


 AVERAGE FORCE                       33.4       TIME AVG. FORCE        19.5    
 LARGEST RESIDUAL FORCE            -0.635       AT NODE      10879   DOF  2
 LARGEST INCREMENT OF DISP.         5.018E-03   AT NODE    1377857   DOF  2
 LARGEST CORRECTION TO DISP.        2.934E-05   AT NODE       2692   DOF  2
          FORCE     EQUILIBRIUM NOT ACHIEVED WITHIN TOLERANCE.

 AVERAGE MOMENT                     2.171E-16   TIME AVG. MOMENT       1.96    
                                                (FROM FORCE     FIELD)
 LARGEST RESIDUAL MOMENT            4.337E-16   AT NODE   50000001   DOF  6
 LARGEST INCREMENT OF ROTATION      2.711E-04   AT NODE   50000001   DOF  6
 LARGEST CORRECTION TO ROTATION    -1.036E-07   AT NODE   50000001   DOF  6
          THERE IS ZERO MOMENT    EVERYWHERE

  NUMBER OF EQUATIONS =     15594     NUMBER OF RHS =    1
  NUMBER OF FLOATING PT. OPERATIONS =  9.37E+07

  USING THE DIRECT SOLVER WITH  12 PROCESSORS

     CHECK POINT   START OF SOLVER    

     CHECK POINT  END OF SOLVER       

       ELAPSED USER TIME (SEC)      =  0.30000    
       ELAPSED SYSTEM TIME (SEC)    =  0.10000    
       ELAPSED TOTAL CPU TIME (SEC) =  0.40000    
       ELAPSED WALLCLOCK TIME (SEC) =          0

               CONVERGENCE CHECKS FOR EQUILIBRIUM ITERATION     2


 AVERAGE FORCE                       33.4       TIME AVG. FORCE        19.5    
 LARGEST RESIDUAL FORCE            -1.352E-03   AT NODE       6784   DOF  1
 LARGEST INCREMENT OF DISP.         5.018E-03   AT NODE    1377857   DOF  2
 LARGEST CORRECTION TO DISP.        1.126E-06   AT NODE        642   DOF  2
          THE FORCE     EQUILIBRIUM EQUATIONS HAVE CONVERGED

 AVERAGE MOMENT                     1.085E-16   TIME AVG. MOMENT       1.96    
                                                (FROM FORCE     FIELD)
 LARGEST RESIDUAL MOMENT           -2.168E-16   AT NODE   50000001   DOF  6
 LARGEST INCREMENT OF ROTATION      2.711E-04   AT NODE   50000001   DOF  6
 LARGEST CORRECTION TO ROTATION    -2.365E-09   AT NODE   50000001   DOF  6
          THERE IS ZERO MOMENT    EVERYWHERE

 ITERATION SUMMARY FOR THE INCREMENT:   2 TOTAL ITERATIONS, OF WHICH
   0 ARE SEVERE DISCONTINUITY ITERATIONS AND  2 ARE EQUILIBRIUM ITERATIONS.

 TIME INCREMENT COMPLETED  0.100    ,  FRACTION OF STEP COMPLETED  0.600    
 STEP TIME COMPLETED       0.600    ,  TOTAL TIME COMPLETED        0.600    
  
     ASYNCHRONOUS OUTPUT DATABASE FRAME FLUSH STARTED
  


  INCREMENT     7 STARTS. ATTEMPT NUMBER  1, TIME INCREMENT  0.100    

  NUMBER OF EQUATIONS =     15594     NUMBER OF RHS =    1
  NUMBER OF FLOATING PT. OPERATIONS =  9.37E+07

  USING THE DIRECT SOLVER WITH  12 PROCESSORS

     CHECK POINT   START OF SOLVER    

     CHECK POINT  END OF SOLVER       

       ELAPSED USER TIME (SEC)      =  0.20000    
       ELAPSED SYSTEM TIME (SEC)    =  0.10000    
       ELAPSED TOTAL CPU TIME (SEC) =  0.30000    
       ELAPSED WALLCLOCK TIME (SEC) =          0

               CONVERGENCE CHECKS FOR EQUILIBRIUM ITERATION     1


 AVERAGE FORCE                       39.0       TIME AVG. FORCE        22.3    
 LARGEST RESIDUAL FORCE              1.82       AT NODE       2687   DOF  2
 LARGEST INCREMENT OF DISP.         5.018E-03   AT NODE    1377857   DOF  2
 LARGEST CORRECTION TO DISP.        3.425E-05   AT NODE        642   DOF  2
          FORCE     EQUILIBRIUM NOT ACHIEVED WITHIN TOLERANCE.

 AVERAGE MOMENT                     2.171E-16   TIME AVG. MOMENT       2.29    
                                                (FROM FORCE     FIELD)
 LARGEST RESIDUAL MOMENT            4.337E-16   AT NODE   50000001   DOF  6
 LARGEST INCREMENT OF ROTATION      2.710E-04   AT NODE   50000001   DOF  6
 LARGEST CORRECTION TO ROTATION    -1.256E-07   AT NODE   50000001   DOF  6
          THERE IS ZERO MOMENT    EVERYWHERE

  NUMBER OF EQUATIONS =     15594     NUMBER OF RHS =    1
  NUMBER OF FLOATING PT. OPERATIONS =  9.37E+07

  USING THE DIRECT SOLVER WITH  12 PROCESSORS

     CHECK POINT   START OF SOLVER    

     CHECK POINT  END OF SOLVER       

       ELAPSED USER TIME (SEC)      =  0.30000    
       ELAPSED SYSTEM TIME (SEC)    =  0.10000    
       ELAPSED TOTAL CPU TIME (SEC) =  0.40000    
       ELAPSED WALLCLOCK TIME (SEC) =          0

               CONVERGENCE CHECKS FOR EQUILIBRIUM ITERATION     2


 AVERAGE FORCE                       39.0       TIME AVG. FORCE        22.3    
 LARGEST RESIDUAL FORCE             1.043E-02   AT NODE      14978   DOF  2
 LARGEST INCREMENT OF DISP.         5.018E-03   AT NODE    1377857   DOF  2
 LARGEST CORRECTION TO DISP.        1.782E-06   AT NODE        642   DOF  2
          THE FORCE     EQUILIBRIUM EQUATIONS HAVE CONVERGED

 AVERAGE MOMENT                     1.219E-22   TIME AVG. MOMENT       2.29    
                                                (FROM FORCE     FIELD)
 LARGEST RESIDUAL MOMENT            2.438E-22   AT NODE   50000001   DOF  6
 LARGEST INCREMENT OF ROTATION      2.710E-04   AT NODE   50000001   DOF  6
 LARGEST CORRECTION TO ROTATION    -3.557E-09   AT NODE   50000001   DOF  6
          THERE IS ZERO MOMENT    EVERYWHERE

 ITERATION SUMMARY FOR THE INCREMENT:   2 TOTAL ITERATIONS, OF WHICH
   0 ARE SEVERE DISCONTINUITY ITERATIONS AND  2 ARE EQUILIBRIUM ITERATIONS.

 TIME INCREMENT COMPLETED  0.100    ,  FRACTION OF STEP COMPLETED  0.700    
 STEP TIME COMPLETED       0.700    ,  TOTAL TIME COMPLETED        0.700    
  
     ASYNCHRONOUS OUTPUT DATABASE FRAME FLUSH STARTED
  


  INCREMENT     8 STARTS. ATTEMPT NUMBER  1, TIME INCREMENT  0.100    

  NUMBER OF EQUATIONS =     15594     NUMBER OF RHS =    1
  NUMBER OF FLOATING PT. OPERATIONS =  9.37E+07

  USING THE DIRECT SOLVER WITH  12 PROCESSORS

     CHECK POINT   START OF SOLVER    

     CHECK POINT  END OF SOLVER       

       ELAPSED USER TIME (SEC)      =  0.50000    
       ELAPSED SYSTEM TIME (SEC)    =  0.10000    
       ELAPSED TOTAL CPU TIME (SEC) =  0.60000    
       ELAPSED WALLCLOCK TIME (SEC) =          1

               CONVERGENCE CHECKS FOR EQUILIBRIUM ITERATION     1


 AVERAGE FORCE                       44.5       TIME AVG. FORCE        25.1    
 LARGEST RESIDUAL FORCE             -4.70       AT NODE       8836   DOF  1
 LARGEST INCREMENT OF DISP.         5.018E-03   AT NODE    1377857   DOF  2
 LARGEST CORRECTION TO DISP.        3.218E-05   AT NODE      10884   DOF  2
          FORCE     EQUILIBRIUM NOT ACHIEVED WITHIN TOLERANCE.

 AVERAGE MOMENT                     4.341E-16   TIME AVG. MOMENT       2.61    
                                                (FROM FORCE     FIELD)
 LARGEST RESIDUAL MOMENT           -8.674E-16   AT NODE   50000001   DOF  6
 LARGEST INCREMENT OF ROTATION      2.708E-04   AT NODE   50000001   DOF  6
 LARGEST CORRECTION TO ROTATION    -1.411E-07   AT NODE   50000001   DOF  6
          THERE IS ZERO MOMENT    EVERYWHERE

  NUMBER OF EQUATIONS =     15594     NUMBER OF RHS =    1
  NUMBER OF FLOATING PT. OPERATIONS =  9.37E+07

  USING THE DIRECT SOLVER WITH  12 PROCESSORS

     CHECK POINT   START OF SOLVER    

     CHECK POINT  END OF SOLVER       

       ELAPSED USER TIME (SEC)      =  0.20000    
       ELAPSED SYSTEM TIME (SEC)    =  0.10000    
       ELAPSED TOTAL CPU TIME (SEC) =  0.30000    
       ELAPSED WALLCLOCK TIME (SEC) =          0

               CONVERGENCE CHECKS FOR EQUILIBRIUM ITERATION     2


 AVERAGE FORCE                       44.5       TIME AVG. FORCE        25.1    
 LARGEST RESIDUAL FORCE            -3.274E-03   AT NODE      12930   DOF  2
 LARGEST INCREMENT OF DISP.         5.018E-03   AT NODE    1377857   DOF  2
 LARGEST CORRECTION TO DISP.        2.355E-06   AT NODE       8837   DOF  2
          THE FORCE     EQUILIBRIUM EQUATIONS HAVE CONVERGED

 AVERAGE MOMENT                     1.122E-22   TIME AVG. MOMENT       2.61    
                                                (FROM FORCE     FIELD)
 LARGEST RESIDUAL MOMENT            2.244E-22   AT NODE   50000001   DOF  6
 LARGEST INCREMENT OF ROTATION      2.708E-04   AT NODE   50000001   DOF  6
 LARGEST CORRECTION TO ROTATION    -3.273E-09   AT NODE   50000001   DOF  6
          THERE IS ZERO MOMENT    EVERYWHERE

 ITERATION SUMMARY FOR THE INCREMENT:   2 TOTAL ITERATIONS, OF WHICH
   0 ARE SEVERE DISCONTINUITY ITERATIONS AND  2 ARE EQUILIBRIUM ITERATIONS.

 TIME INCREMENT COMPLETED  0.100    ,  FRACTION OF STEP COMPLETED  0.800    
 STEP TIME COMPLETED       0.800    ,  TOTAL TIME COMPLETED        0.800    
  
     ASYNCHRONOUS OUTPUT DATABASE FRAME FLUSH STARTED
  


  INCREMENT     9 STARTS. ATTEMPT NUMBER  1, TIME INCREMENT  0.100    

  NUMBER OF EQUATIONS =     15594     NUMBER OF RHS =    1
  NUMBER OF FLOATING PT. OPERATIONS =  9.37E+07

  USING THE DIRECT SOLVER WITH  12 PROCESSORS

     CHECK POINT   START OF SOLVER    

     CHECK POINT  END OF SOLVER       

       ELAPSED USER TIME (SEC)      =  0.30000    
       ELAPSED SYSTEM TIME (SEC)    =  0.10000    
       ELAPSED TOTAL CPU TIME (SEC) =  0.40000    
       ELAPSED WALLCLOCK TIME (SEC) =          0

               CONVERGENCE CHECKS FOR EQUILIBRIUM ITERATION     1


 AVERAGE FORCE                       50.0       TIME AVG. FORCE        27.9    
 LARGEST RESIDUAL FORCE             -1.87       AT NODE       8837   DOF  1
 LARGEST INCREMENT OF DISP.         5.018E-03   AT NODE    1377857   DOF  2
 LARGEST CORRECTION TO DISP.        3.188E-05   AT NODE       2691   DOF  2
          FORCE     EQUILIBRIUM NOT ACHIEVED WITHIN TOLERANCE.

 AVERAGE MOMENT                     5.580E-21   TIME AVG. MOMENT       2.94    
                                                (FROM FORCE     FIELD)
 LARGEST RESIDUAL MOMENT            1.116E-20   AT NODE   50000001   DOF  6
 LARGEST INCREMENT OF ROTATION      2.707E-04   AT NODE   50000001   DOF  6
 LARGEST CORRECTION TO ROTATION    -1.628E-07   AT NODE   50000001   DOF  6
          THERE IS ZERO MOMENT    EVERYWHERE

  NUMBER OF EQUATIONS =     15594     NUMBER OF RHS =    1
  NUMBER OF FLOATING PT. OPERATIONS =  9.37E+07

  USING THE DIRECT SOLVER WITH  12 PROCESSORS

     CHECK POINT   START OF SOLVER    

     CHECK POINT  END OF SOLVER       

       ELAPSED USER TIME (SEC)      =  0.90000    
       ELAPSED SYSTEM TIME (SEC)    =   0.0000    
       ELAPSED TOTAL CPU TIME (SEC) =  0.90000    
       ELAPSED WALLCLOCK TIME (SEC) =          0

               CONVERGENCE CHECKS FOR EQUILIBRIUM ITERATION     2


 AVERAGE FORCE                       50.0       TIME AVG. FORCE        27.9    
 LARGEST RESIDUAL FORCE             3.509E-03   AT NODE      27265   DOF  1
 LARGEST INCREMENT OF DISP.         5.018E-03   AT NODE    1377857   DOF  2
 LARGEST CORRECTION TO DISP.        1.349E-06   AT NODE       8838   DOF  2
          THE FORCE     EQUILIBRIUM EQUATIONS HAVE CONVERGED

 AVERAGE MOMENT                     1.590E-22   TIME AVG. MOMENT       2.94    
                                                (FROM FORCE     FIELD)
 LARGEST RESIDUAL MOMENT            3.181E-22   AT NODE   50000001   DOF  6
 LARGEST INCREMENT OF ROTATION      2.707E-04   AT NODE   50000001   DOF  6
 LARGEST CORRECTION TO ROTATION    -4.639E-09   AT NODE   50000001   DOF  6
          THERE IS ZERO MOMENT    EVERYWHERE

 ITERATION SUMMARY FOR THE INCREMENT:   2 TOTAL ITERATIONS, OF WHICH
   0 ARE SEVERE DISCONTINUITY ITERATIONS AND  2 ARE EQUILIBRIUM ITERATIONS.

 TIME INCREMENT COMPLETED  0.100    ,  FRACTION OF STEP COMPLETED  0.900    
 STEP TIME COMPLETED       0.900    ,  TOTAL TIME COMPLETED        0.900    
  
     ASYNCHRONOUS OUTPUT DATABASE FRAME FLUSH STARTED
  


  INCREMENT    10 STARTS. ATTEMPT NUMBER  1, TIME INCREMENT  0.100    

  NUMBER OF EQUATIONS =     15594     NUMBER OF RHS =    1
  NUMBER OF FLOATING PT. OPERATIONS =  9.37E+07

  USING THE DIRECT SOLVER WITH  12 PROCESSORS

     CHECK POINT   START OF SOLVER    

     CHECK POINT  END OF SOLVER       

       ELAPSED USER TIME (SEC)      =  0.40000    
       ELAPSED SYSTEM TIME (SEC)    =   0.0000    
       ELAPSED TOTAL CPU TIME (SEC) =  0.40000    
       ELAPSED WALLCLOCK TIME (SEC) =          1

               CONVERGENCE CHECKS FOR EQUILIBRIUM ITERATION     1


 AVERAGE FORCE                       55.5       TIME AVG. FORCE        30.6    
 LARGEST RESIDUAL FORCE              1.51       AT NODE      35453   DOF  2
 LARGEST INCREMENT OF DISP.         5.018E-03   AT NODE    1377857   DOF  2
 LARGEST CORRECTION TO DISP.        2.952E-05   AT NODE      12934   DOF  2
          FORCE     EQUILIBRIUM NOT ACHIEVED WITHIN TOLERANCE.

 AVERAGE MOMENT                     2.171E-16   TIME AVG. MOMENT       3.26    
                                                (FROM FORCE     FIELD)
 LARGEST RESIDUAL MOMENT           -4.337E-16   AT NODE   50000001   DOF  6
 LARGEST INCREMENT OF ROTATION      2.705E-04   AT NODE   50000001   DOF  6
 LARGEST CORRECTION TO ROTATION    -1.797E-07   AT NODE   50000001   DOF  6
          THERE IS ZERO MOMENT    EVERYWHERE

  NUMBER OF EQUATIONS =     15594     NUMBER OF RHS =    1
  NUMBER OF FLOATING PT. OPERATIONS =  9.37E+07

  USING THE DIRECT SOLVER WITH  12 PROCESSORS

     CHECK POINT   START OF SOLVER    

     CHECK POINT  END OF SOLVER       

       ELAPSED USER TIME (SEC)      =  0.80000    
       ELAPSED SYSTEM TIME (SEC)    =   0.0000    
       ELAPSED TOTAL CPU TIME (SEC) =  0.80000    
       ELAPSED WALLCLOCK TIME (SEC) =          0

               CONVERGENCE CHECKS FOR EQUILIBRIUM ITERATION     2


 AVERAGE FORCE                       55.5       TIME AVG. FORCE        30.6    
 LARGEST RESIDUAL FORCE            -1.372E-02   AT NODE      31362   DOF  2
 LARGEST INCREMENT OF DISP.         5.018E-03   AT NODE    1377857   DOF  2
 LARGEST CORRECTION TO DISP.        1.264E-06   AT NODE      31363   DOF  2
          THE FORCE     EQUILIBRIUM EQUATIONS HAVE CONVERGED

 AVERAGE MOMENT                     4.341E-16   TIME AVG. MOMENT       3.26    
                                                (FROM FORCE     FIELD)
 LARGEST RESIDUAL MOMENT            8.674E-16   AT NODE   50000001   DOF  6
 LARGEST INCREMENT OF ROTATION      2.705E-04   AT NODE   50000001   DOF  6
 LARGEST CORRECTION TO ROTATION    -4.208E-09   AT NODE   50000001   DOF  6
          THERE IS ZERO MOMENT    EVERYWHERE

 ITERATION SUMMARY FOR THE INCREMENT:   2 TOTAL ITERATIONS, OF WHICH
   0 ARE SEVERE DISCONTINUITY ITERATIONS AND  2 ARE EQUILIBRIUM ITERATIONS.

 TIME INCREMENT COMPLETED  0.100    ,  FRACTION OF STEP COMPLETED   1.00    
 STEP TIME COMPLETED        1.00    ,  TOTAL TIME COMPLETED         1.00    


          THE ANALYSIS HAS BEEN COMPLETED



     ANALYSIS SUMMARY:
     TOTAL OF         10  INCREMENTS
                       0  CUTBACKS IN AUTOMATIC INCREMENTATION
                      18  ITERATIONS INCLUDING CONTACT ITERATIONS IF PRESENT
                      18  PASSES THROUGH THE EQUATION SOLVER OF WHICH 
                      16  INVOLVE MATRIX DECOMPOSITION, INCLUDING
                       0  DECOMPOSITION(S) OF THE MASS MATRIX
                       1  REORDERING OF EQUATIONS TO MINIMIZE WAVEFRONT
                       0  ADDITIONAL RESIDUAL EVALUATIONS FOR LINE SEARCHES
                       0  ADDITIONAL OPERATOR EVALUATIONS FOR LINE SEARCHES
                       7  WARNING MESSAGES DURING USER INPUT PROCESSING
                       0  WARNING MESSAGES DURING ANALYSIS
                       0  ANALYSIS WARNINGS ARE NUMERICAL PROBLEM MESSAGES
                       0  ANALYSIS WARNINGS ARE NEGATIVE EIGENVALUE MESSAGES
                       0  ERROR MESSAGES



     JOB TIME SUMMARY
       USER TIME (SEC)      =   9.1000    
       SYSTEM TIME (SEC)    =   3.3000    
       TOTAL CPU TIME (SEC) =   12.400    
       WALLCLOCK TIME (SEC) =          5
