 Abaqus/Standard 3DEXPERIENCE R2018x                  DATE 07-Nov-2023 TIME 11:23:40
 SUMMARY OF JOB INFORMATION:
 STEP  INC ATT SEVERE EQUIL TOTAL  TOTAL      STEP       INC OF       DOF    IF
               DISCON ITERS ITERS  TIME/    TIME/LPF    TIME/LPF    MONITOR RIKS
               ITERS               FREQ
   1     1   1U    0     1     1  0.00       0.00       10.00     
   1     1   2U    0     1     1  0.00       0.00       0.1462    
   1     1   3U    0     1     1  0.00       0.00       0.009204  
   1     1   4     0     1     1  0.00600    0.00600    0.006000  
   1     2   1     0     1     1  0.0120     0.0120     0.006000  
   1     3   1     0     1     1  0.0180     0.0180     0.006000  
   1     4   1     0     1     1  0.0240     0.0240     0.006000  
   1     5   1     0     1     1  0.0300     0.0300     0.006000  
   1     6   1     0     1     1  0.0360     0.0360     0.006000  
   1     7   1     0     1     1  0.0420     0.0420     0.006000  
   1     8   1     0     1     1  0.0480     0.0480     0.006000  
   1     9   1     0     1     1  0.0540     0.0540     0.006000  
   1    10   1     0     1     1  0.0600     0.0600     0.006000  
   1    11   1     0     1     1  0.0660     0.0660     0.006000  
   1    12   1     0     1     1  0.0720     0.0720     0.006000  
   1    13   1     0     1     1  0.0780     0.0780     0.006000  
   1    14   1     0     1     1  0.0840     0.0840     0.006000  
   1    15   1     0     1     1  0.0900     0.0900     0.006000  
   1    16   1     0     1     1  0.0960     0.0960     0.006000  
   1    17   1     0     1     1  0.102      0.102      0.006000  
   1    18   1     0     1     1  0.108      0.108      0.006000  
   1    19   1     0     1     1  0.114      0.114      0.006000  
   1    20   1     0     1     1  0.120      0.120      0.006000  
   1    21   1     0     1     1  0.126      0.126      0.006000  
   1    22   1     0     1     1  0.132      0.132      0.006000  
   1    23   1     0     1     1  0.138      0.138      0.006000  
   1    24   1     0     1     1  0.144      0.144      0.006000  
   1    25   1     0     1     1  0.150      0.150      0.006000  
   1    26   1     0     1     1  0.156      0.156      0.006000  
   1    27   1     0     1     1  0.162      0.162      0.006000  
   1    28   1     0     1     1  0.168      0.168      0.006000  
   1    29   1     0     1     1  0.179      0.179      0.01142   
   1    30   1     0     1     1  0.191      0.191      0.01142   
   1    31   1     0     1     1  0.202      0.202      0.01142   
   1    32   1     0     1     1  0.214      0.214      0.01142   
   1    33   1     0     1     1  0.225      0.225      0.01142   
   1    34   1     0     1     1  0.236      0.236      0.01142   
   1    35   1     0     1     1  0.248      0.248      0.01142   
   1    36   1     0     1     1  0.259      0.259      0.01142   
   1    37   1     0     1     1  0.271      0.271      0.01142   
   1    38   1     0     1     1  0.282      0.282      0.01142   
   1    39   1     0     1     1  0.294      0.294      0.01142   
   1    40   1     0     1     1  0.305      0.305      0.01142   
   1    41   1     0     1     1  0.316      0.316      0.01142   
   1    42   1     0     1     1  0.328      0.328      0.01142   
   1    43   1     0     1     1  0.339      0.339      0.01142   
   1    44   1     0     1     1  0.351      0.351      0.01142   
   1    45   1     0     1     1  0.362      0.362      0.01142   
   1    46   1     0     1     1  0.373      0.373      0.01142   
   1    47   1     0     1     1  0.396      0.396      0.02236   
   1    48   1     0     1     1  0.418      0.418      0.02236   
   1    49   1     0     1     1  0.441      0.441      0.02236   
   1    50   1     0     1     1  0.463      0.463      0.02236   
   1    51   1     0     1     1  0.485      0.485      0.02236   
   1    52   1     0     1     1  0.508      0.508      0.02236   
   1    53   1     0     1     1  0.530      0.530      0.02236   
   1    54   1     0     1     1  0.552      0.552      0.02236   
   1    55   1     0     1     1  0.575      0.575      0.02236   
   1    56   1     0     1     1  0.597      0.597      0.02236   
   1    57   1     0     1     1  0.619      0.619      0.02236   
   1    58   1     0     1     1  0.642      0.642      0.02236   
   1    59   1     0     1     1  0.664      0.664      0.02236   
   1    60   1     0     1     1  0.687      0.687      0.02236   
   1    61   1     0     1     1  0.709      0.709      0.02236   
   1    62   1     0     1     1  0.752      0.752      0.04332   
   1    63   1     0     1     1  0.796      0.796      0.04332   
   1    64   1     0     1     1  0.839      0.839      0.04332   
   1    65   1     0     1     1  0.882      0.882      0.04332   
   1    66   1     0     1     1  0.925      0.925      0.04332   
   1    67   1     0     1     1  0.969      0.969      0.04332   
   1    68   1     0     1     1  1.01       1.01       0.04332   
   1    69   1     0     1     1  1.06       1.06       0.04332   
   1    70   1     0     1     1  1.10       1.10       0.04332   
   1    71   1     0     1     1  1.14       1.14       0.04332   
   1    72   1     0     1     1  1.19       1.19       0.04332   
   1    73   1     0     1     1  1.23       1.23       0.04332   
   1    74   1     0     1     1  1.27       1.27       0.04332   
   1    75   1     0     1     1  1.32       1.32       0.04332   
   1    76   1     0     1     1  1.36       1.36       0.04332   
   1    77   1     0     1     1  1.40       1.40       0.04332   
   1    78   1     0     1     1  1.49       1.49       0.08340   
   1    79   1     0     1     1  1.57       1.57       0.08340   
   1    80   1     0     1     1  1.65       1.65       0.08340   
   1    81   1     0     1     1  1.74       1.74       0.08340   
   1    82   1     0     1     1  1.82       1.82       0.08340   
   1    83   1     0     1     1  1.90       1.90       0.08340   
   1    84   1     0     1     1  1.99       1.99       0.08340   
   1    85   1     0     1     1  2.07       2.07       0.08340   
   1    86   1     0     1     1  2.15       2.15       0.08340   
   1    87   1     0     1     1  2.24       2.24       0.08340   
   1    88   1     0     1     1  2.32       2.32       0.08340   
   1    89   1     0     1     1  2.40       2.40       0.08340   
   1    90   1     0     1     1  2.49       2.49       0.08340   
   1    91   1     0     1     1  2.57       2.57       0.08340   
   1    92   1     0     1     1  2.65       2.65       0.08340   
   1    93   1     0     1     1  2.74       2.74       0.08340   
   1    94   1     0     1     1  2.90       2.90       0.1589    
   1    95   1     0     1     1  3.05       3.05       0.1589    
   1    96   1     0     1     1  3.21       3.21       0.1589    
   1    97   1     0     1     1  3.37       3.37       0.1589    
   1    98   1     0     1     1  3.53       3.53       0.1589    
   1    99   1     0     1     1  3.69       3.69       0.1589    
   1   100   1     0     1     1  3.85       3.85       0.1589    
   1   101   1     0     1     1  4.01       4.01       0.1589    
   1   102   1     0     1     1  4.17       4.17       0.1589    
   1   103   1     0     1     1  4.33       4.33       0.1589    
   1   104   1     0     1     1  4.48       4.48       0.1589    
   1   105   1     0     1     1  4.64       4.64       0.1589    
   1   106   1     0     1     1  4.80       4.80       0.1589    
   1   107   1     0     1     1  4.96       4.96       0.1589    
   1   108   1     0     1     1  5.26       5.26       0.3035    
   1   109   1     0     1     1  5.57       5.57       0.3035    
   1   110   1     0     1     1  5.87       5.87       0.3035    
   1   111   1     0     1     1  6.17       6.17       0.3035    
   1   112   1     0     1     1  6.48       6.48       0.3035    
   1   113   1     0     1     1  6.78       6.78       0.3035    
   1   114   1     0     1     1  7.09       7.09       0.3035    
   1   115   1     0     1     1  7.39       7.39       0.3035    
   1   116   1     0     1     1  7.69       7.69       0.3035    
   1   117   1     0     1     1  8.00       8.00       0.3035    
   1   118   1     0     1     1  8.30       8.30       0.3035    
   1   119   1     0     1     1  8.60       8.60       0.3035    
   1   120   1     0     1     1  8.91       8.91       0.3035    
   1   121   1     0     1     1  9.50       9.50       0.5970    
   1   122   1     0     1     1  10.1       10.1       0.5970    
   1   123   1     0     1     1  10.7       10.7       0.5970    
   1   124   1     0     1     1  11.3       11.3       0.5970    
   1   125   1     0     1     1  11.9       11.9       0.5970    
   1   126   1     0     1     1  12.5       12.5       0.5970    
   1   127   1     0     1     1  13.1       13.1       0.5970    
   1   128   1     0     1     1  13.7       13.7       0.5970    
   1   129   1     0     1     1  14.3       14.3       0.5970    
   1   130   1     0     1     1  14.9       14.9       0.5970    
   1   131   1     0     1     1  16.0       16.0       1.138     
   1   132   1     0     1     1  17.2       17.2       1.138     
   1   133   1     0     1     1  18.3       18.3       1.138     
   1   134   1     0     1     1  19.4       19.4       1.138     
   1   135   1     0     1     1  20.6       20.6       1.138     
   1   136   1     0     1     1  21.7       21.7       1.138     
   1   137   1     0     1     1  22.8       22.8       1.138     
   1   138   1     0     1     1  24.0       24.0       1.138     
   1   139   1     0     1     1  25.1       25.1       1.138     
   1   140   1     0     1     1  27.4       27.4       2.267     
   1   141   1     0     1     1  29.6       29.6       2.267     
   1   142   1     0     1     1  31.9       31.9       2.267     
   1   143   1     0     1     1  34.2       34.2       2.267     
   1   144   1     0     1     1  36.5       36.5       2.267     
   1   145   1     0     1     1  38.7       38.7       2.267     
   1   146   1     0     1     1  41.0       41.0       2.267     
   1   147   1     0     1     1  45.4       45.4       4.414     
   1   148   1     0     1     1  49.8       49.8       4.414     
   1   149   1     0     1     1  54.2       54.2       4.414     
   1   150   1     0     1     1  58.6       58.6       4.414     
   1   151   1     0     1     1  63.1       63.1       4.414     
   1   152   1     0     1     1  67.5       67.5       4.414     
   1   153   1     0     1     1  76.3       76.3       8.805     
   1   154   1     0     1     1  86.3       86.3       10.00     
   1   155   1     0     1     1  96.3       96.3       10.00     
   1   156   1     0     1     1  106.       106.       10.00     
   1   157   1     0     1     1  116.       116.       10.00     
   1   158   1     0     1     1  126.       126.       10.00     
   1   159   1     0     1     1  136.       136.       10.00     
   1   160   1     0     1     1  146.       146.       10.00     
   1   161   1     0     1     1  156.       156.       10.00     
   1   162   1     0     1     1  166.       166.       10.00     
   1   163   1     0     1     1  176.       176.       10.00     
   1   164   1     0     1     1  186.       186.       10.00     
   1   165   1     0     1     1  196.       196.       10.00     
   1   166   1     0     1     1  206.       206.       10.00     
   1   167   1     0     1     1  216.       216.       10.00     
   1   168   1     0     1     1  226.       226.       10.00     
   1   169   1     0     1     1  236.       236.       10.00     
   1   170   1     0     1     1  246.       246.       10.00     
   1   171   1     0     1     1  256.       256.       10.00     
   1   172   1     0     1     1  266.       266.       10.00     
   1   173   1     0     1     1  276.       276.       10.00     
   1   174   1     0     1     1  286.       286.       10.00     
   1   175   1     0     1     1  296.       296.       10.00     
   1   176   1     0     1     1  306.       306.       10.00     
   1   177   1     0     1     1  316.       316.       10.00     
   1   178   1     0     1     1  326.       326.       10.00     
   1   179   1     0     1     1  336.       336.       10.00     
   1   180   1     0     1     1  346.       346.       10.00     
   1   181   1     0     1     1  356.       356.       10.00     
   1   182   1     0     1     1  366.       366.       10.00     
   1   183   1     0     1     1  376.       376.       10.00     
   1   184   1     0     1     1  386.       386.       10.00     
   1   185   1     0     1     1  396.       396.       10.00     
   1   186   1     0     1     1  406.       406.       10.00     
   1   187   1     0     1     1  416.       416.       10.00     
   1   188   1     0     1     1  426.       426.       10.00     
   1   189   1     0     1     1  436.       436.       10.00     
   1   190   1     0     1     1  446.       446.       10.00     
   1   191   1     0     1     1  456.       456.       10.00     
   1   192   1     0     1     1  466.       466.       10.00     
   1   193   1     0     1     1  476.       476.       10.00     
   1   194   1     0     1     1  486.       486.       10.00     
   1   195   1     0     1     1  496.       496.       10.00     
   1   196   1     0     1     1  506.       506.       10.00     
   1   197   1     0     1     1  516.       516.       10.00     
   1   198   1     0     1     1  526.       526.       10.00     
   1   199   1     0     1     1  536.       536.       10.00     
   1   200   1     0     1     1  546.       546.       10.00     
   1   201   1     0     1     1  556.       556.       10.00     
   1   202   1     0     1     1  566.       566.       10.00     
   1   203   1     0     1     1  576.       576.       10.00     
   1   204   1     0     1     1  586.       586.       10.00     
   1   205   1     0     1     1  596.       596.       10.00     
   1   206   1     0     1     1  600.       600.       3.725     
                          
 THE ANALYSIS HAS COMPLETED SUCCESSFULLY
