1

   Abaqus 3DEXPERIENCE R2018x                                  Date 07-Nov-2023   Time 11:23:39
   For use by AALTO UNIVERSITY under license from Dassault Systemes or its subsidiary.

 traction Hydrogen                                                               
                                                                                 
 STEP    1     INCREMENT     1     STEP TIME    0.00    


                        S T E P       1     T R A N S I E N T   M A S S   D I F F U S I O N


                                                                                          

     AUTOMATIC TIME CONTROL WITH -
          A SUGGESTED INITIAL TIME INCREMENT OF                 10.0    
          AND A TOTAL TIME PERIOD OF                            600.    
          THE MINIMUM TIME INCREMENT ALLOWED IS                6.000E-03
          THE MAXIMUM TIME INCREMENT ALLOWED IS                 10.0    

     THE SIZE OF THE TIME INCREMENT IS CONTROLLED BY -
          THE NORMALIZED CONCENTRATION CHANGE PER INCREMENT NOT EXCEEDING   0.300    

 CONVERGENCE TOLERANCE PARAMETERS FOR MASS FLUX
     CRITERION FOR RESIDUAL MASS FLUX FOR A NONLINEAR PROBLEM          5.000E-03
     CRITERION FOR CONCENT. CORRECTION IN A NONLINEAR PROBLEM          1.000E-02
     INITIAL VALUE OF TIME AVERAGE MASS FLUX                           1.000E-02
     AVERAGE MASS FLUX IS TIME AVERAGE MASS FLUX
     ALTERNATE CRIT. FOR RESIDUAL MASS FLUX FOR A NONLINEAR PROBLEM    2.000E-02
     CRITERION FOR ZERO MASS FLUX RELATIVE TO TIME AVRG. MASS FLUX     1.000E-05
     CRITERION FOR RESIDUAL MASS FLUX WHEN THERE IS ZERO FLUX          1.000E-05
     CRITERION FOR CONCENT. CORRECTION WHEN THERE IS ZERO FLUX         1.000E-03
     CRITERION FOR RESIDUAL MASS FLUX FOR A LINEAR INCREMENT           1.000E-08
     FIELD CONVERSION RATIO                                             1.00    
     CRITERION FOR ZERO MASS FLUX REL. TO TIME AVRG. MAX. MASS FLUX    1.000E-05

     VOLUMETRIC STRAIN COMPATIBILITY TOLERANCE FOR HYBRID SOLIDS       1.000E-05
     AXIAL STRAIN COMPATIBILITY TOLERANCE FOR HYBRID BEAMS             1.000E-05
     TRANS. SHEAR STRAIN COMPATIBILITY TOLERANCE FOR HYBRID BEAMS      1.000E-05
     SOFT CONTACT CONSTRAINT COMPATIBILITY TOLERANCE FOR P>P0          5.000E-03
     SOFT CONTACT CONSTRAINT COMPATIBILITY TOLERANCE FOR P=0.0         0.100    
     CONTACT FORCE ERROR TOLERANCE FOR CONVERT SDI=YES                 1.00    
     DISPLACEMENT COMPATIBILITY TOLERANCE FOR DCOUP ELEMENTS           1.000E-05
     ROTATION COMPATIBILITY TOLERANCE FOR DCOUP ELEMENTS               1.000E-05

 EQUILIBRIUM WILL BE CHECKED FOR SEVERE DISCONTINUITY ITERATIONS

 TIME INCREMENTATION CONTROL PARAMETERS:
     FIRST EQUILIBRIUM ITERATION FOR CONSECUTIVE DIVERGENCE CHECK              4
     EQUILIBRIUM ITERATION AT WHICH LOG. CONVERGENCE RATE CHECK BEGINS         8
     EQUILIBRIUM ITERATION AFTER WHICH ALTERNATE RESIDUAL IS USED              9
     MAXIMUM EQUILIBRIUM ITERATIONS ALLOWED                                   16
     EQUILIBRIUM ITERATION COUNT FOR CUT-BACK IN NEXT INCREMENT               10
     MAXIMUM EQUILIB. ITERS IN TWO INCREMENTS FOR TIME INCREMENT INCREASE      4
     MAXIMUM ITERATIONS FOR SEVERE DISCONTINUITIES                            50
     MAXIMUM ATTEMPTS ALLOWED IN AN INCREMENT                                  5
     MAXIMUM DISCON. ITERS IN TWO INCREMENTS FOR TIME INCREMENT INCREASE      50
     MAXIMUM CONTACT AUGMENTATIONS FOR *SURFACE BEHAVIOR,AUGMENTED LAGRANGE   50
     CONSECUTIVE INCS MEETING TIME INTEG. TOL. FOR TIME INC. INCREASE          3
     CUT-BACK FACTOR AFTER DIVERGENCE                                 0.2500    
     CUT-BACK FACTOR FOR TOO SLOW CONVERGENCE                         0.5000    
     CUT-BACK FACTOR AFTER TOO MANY EQUILIBRIUM ITERATIONS            0.7500    
     CUT-BACK FACTOR AFTER TOO MANY SEVERE DISCONTINUITY ITERATIONS   0.2500    
     CUT-BACK FACTOR AFTER PROBLEMS IN ELEMENT ASSEMBLY               0.2500    
     INCREASE FACTOR AFTER TWO INCREMENTS THAT CONVERGE QUICKLY        1.500    
     MAX. TIME INCREMENT INCREASE FACTOR ALLOWED                       1.500    
     MAX. TIME INCREMENT INCREASE FACTOR ALLOWED (DYNAMICS)            1.250    
     MAX. TIME INCREMENT INCREASE FACTOR ALLOWED (DIFFUSION)           2.000    
     MINIMUM TIME INCREMENT RATIO FOR EXTRAPOLATION TO OCCUR          0.1000    
     CUT-BACK FACTOR WHEN TIME INTEGRATION ACCURACY TOL. EXCEEDED     0.8500    
     MAX. RATIO OF TIME INTEG. MEASURE TO TOL. FOR TIME INC. INCREASE 0.7500    
     INCREASE FACTOR FOR TIME INCREMENT WHEN POSSIBLE                 0.8000    
     MIN. TIME INC. INCREASE FACTOR IN LINEAR TRANSIENT PROBLEMS      0.9500    
     MAX. RATIO OF TIME INCREMENT TO STABILITY LIMIT                   1.000    
     FRACTION OF STABILITY LIMIT FOR NEW TIME INCREMENT               0.9500    
     TIME INCREMENT INCREASE FACTOR BEFORE A TIME POINT                1.000    
     GLOBAL STABILIZATION CONTROL IS NOT USED

          PRINT OF INCREMENT NUMBER, TIME, ETC., EVERY    1  INCREMENTS

     THE MAXIMUM NUMBER OF INCREMENTS IN THIS STEP IS                    3000

          UNSYMMETRIC MATRIX STORAGE AND SOLUTION WILL BE USED

     LINEAR EXTRAPOLATION WILL BE USED

     CHARACTERISTIC ELEMENT LENGTH     0.117    

     DETAILS REGARDING ACTUAL SOLUTION WAVEFRONT REQUESTED

     DETAILED OUTPUT OF DIAGNOSTICS TO DATABASE REQUESTED

     PRINT OF INCREMENT NUMBER, TIME, ETC., TO THE MESSAGE FILE EVERY     1  INCREMENTS

     ELEMENT OPERATIONS WILL BE CARRIED OUT IN PARALLEL USING  12 PROCESSORS

     PARALLEL CONTACT TRACKING ENABLED


     COLLECTING MODEL CONSTRAINT INFORMATION FOR OVERCONSTRAINT CHECKS

     COLLECTING STEP CONSTRAINT INFORMATION FOR OVERCONSTRAINT CHECKS
  
     ASYNCHRONOUS OUTPUT DATABASE FRAME FLUSH STARTED
  


  INCREMENT     1 STARTS. ATTEMPT NUMBER  1, TIME INCREMENT   10.0    
 
     INITIAL ELEMENT LOAD BALANCE
        COMPUTE NODE   1   PROCESS    NUMBER OF ELEMENTS
                              1            512
                              2            768
                              3            768
                              4            512
                              5            512
                              6            768
                              7            512
                              8            512
                              9            768
                             10            768
                             11            768
                             12            596

  NUMBER OF EQUATIONS =      7794     NUMBER OF RHS =    1
  NUMBER OF FLOATING PT. OPERATIONS =  2.40E+07

  USING THE DIRECT SOLVER WITH  12 PROCESSORS

     CHECK POINT   START OF SOLVER    

     CHECK POINT  END OF SOLVER       

       ELAPSED USER TIME (SEC)      =  0.20000    
       ELAPSED SYSTEM TIME (SEC)    =   0.0000    
       ELAPSED TOTAL CPU TIME (SEC) =  0.20000    
       ELAPSED WALLCLOCK TIME (SEC) =          0

               CONVERGENCE CHECKS FOR EQUILIBRIUM ITERATION     1


 AVERAGE MASS FLUX                  4.312E-05   TIME AVG. MASS FLUX   4.312E-05
 LARGEST RESIDUAL MASS FLUX        -3.667E-17   AT NODE    1835137   DOF 11
 LARGEST INCREMENT OF CONCENT.       17.4       AT NODE        640   DOF 11
 LARGEST CORRECTION TO CONCENT.      17.4       AT NODE        640   DOF 11
          THE MASS FLUX EQUILIBRIUM RESPONSE WAS LINEAR IN THIS INCREMENT

 MAXIMUM NON-PRESCRIBED INCREMENT IN NORMALIZED CONCENTRATION IS    17.4    
 

 ***NOTE: THE TIME INTEGRATION ACCURACY TOLERANCE HAS BEEN EXCEEDED.


  INCREMENT     1 STARTS. ATTEMPT NUMBER  2, TIME INCREMENT  0.146    
 
     INITIAL ELEMENT LOAD BALANCE
        COMPUTE NODE   1   PROCESS    NUMBER OF ELEMENTS
                              1            512
                              2            512
                              3            768
                              4            596
                              5            512
                              6            768
                              7            768
                              8            768
                              9            512
                             10            768
                             11            768
                             12            512

  NUMBER OF EQUATIONS =      7794     NUMBER OF RHS =    1
  NUMBER OF FLOATING PT. OPERATIONS =  2.40E+07

  USING THE DIRECT SOLVER WITH  12 PROCESSORS

     CHECK POINT   START OF SOLVER    

     CHECK POINT  END OF SOLVER       

       ELAPSED USER TIME (SEC)      =  0.20000    
       ELAPSED SYSTEM TIME (SEC)    =   0.0000    
       ELAPSED TOTAL CPU TIME (SEC) =  0.20000    
       ELAPSED WALLCLOCK TIME (SEC) =          0

               CONVERGENCE CHECKS FOR EQUILIBRIUM ITERATION     1


 AVERAGE MASS FLUX                  4.828E-05   TIME AVG. MASS FLUX   4.828E-05
 LARGEST RESIDUAL MASS FLUX         2.149E-15   AT NODE    1245505   DOF 11
 LARGEST INCREMENT OF CONCENT.       4.05       AT NODE        640   DOF 11
 LARGEST CORRECTION TO CONCENT.      4.05       AT NODE        640   DOF 11
          THE MASS FLUX EQUILIBRIUM RESPONSE WAS LINEAR IN THIS INCREMENT

 MAXIMUM NON-PRESCRIBED INCREMENT IN NORMALIZED CONCENTRATION IS    4.05    
 

 ***NOTE: THE TIME INTEGRATION ACCURACY TOLERANCE HAS BEEN EXCEEDED.


  INCREMENT     1 STARTS. ATTEMPT NUMBER  3, TIME INCREMENT  9.204E-03
 
     INITIAL ELEMENT LOAD BALANCE
        COMPUTE NODE   1   PROCESS    NUMBER OF ELEMENTS
                              1            512
                              2            768
                              3            512
                              4            768
                              5            512
                              6            512
                              7            768
                              8            768
                              9            768
                             10            596
                             11            512
                             12            768

  NUMBER OF EQUATIONS =      7794     NUMBER OF RHS =    1
  NUMBER OF FLOATING PT. OPERATIONS =  2.40E+07

  USING THE DIRECT SOLVER WITH  12 PROCESSORS

     CHECK POINT   START OF SOLVER    

     CHECK POINT  END OF SOLVER       

       ELAPSED USER TIME (SEC)      =  0.10000    
       ELAPSED SYSTEM TIME (SEC)    =   0.0000    
       ELAPSED TOTAL CPU TIME (SEC) =  0.10000    
       ELAPSED WALLCLOCK TIME (SEC) =          0

               CONVERGENCE CHECKS FOR EQUILIBRIUM ITERATION     1


 AVERAGE MASS FLUX                  4.875E-05   TIME AVG. MASS FLUX   4.875E-05
 LARGEST RESIDUAL MASS FLUX        -3.399E-14   AT NODE     590913   DOF 11
 LARGEST INCREMENT OF CONCENT.      0.417       AT NODE        640   DOF 11
 LARGEST CORRECTION TO CONCENT.     0.417       AT NODE        640   DOF 11
          THE MASS FLUX EQUILIBRIUM RESPONSE WAS LINEAR IN THIS INCREMENT

 MAXIMUM NON-PRESCRIBED INCREMENT IN NORMALIZED CONCENTRATION IS   0.417    
 

 ***NOTE: THE TIME INTEGRATION ACCURACY TOLERANCE HAS BEEN EXCEEDED.


  INCREMENT     1 STARTS. ATTEMPT NUMBER  4, TIME INCREMENT  6.000E-03
 
     INITIAL ELEMENT LOAD BALANCE
        COMPUTE NODE   1   PROCESS    NUMBER OF ELEMENTS
                              1            512
                              2            512
                              3            768
                              4            768
                              5            512
                              6            512
                              7            768
                              8            768
                              9            768
                             10            512
                             11            768
                             12            596

  NUMBER OF EQUATIONS =      7794     NUMBER OF RHS =    1
  NUMBER OF FLOATING PT. OPERATIONS =  2.40E+07

  USING THE DIRECT SOLVER WITH  12 PROCESSORS

     CHECK POINT   START OF SOLVER    

     CHECK POINT  END OF SOLVER       

       ELAPSED USER TIME (SEC)      =  0.10000    
       ELAPSED SYSTEM TIME (SEC)    =  0.10000    
       ELAPSED TOTAL CPU TIME (SEC) =  0.20000    
       ELAPSED WALLCLOCK TIME (SEC) =          0

               CONVERGENCE CHECKS FOR EQUILIBRIUM ITERATION     1


 AVERAGE MASS FLUX                  4.877E-05   TIME AVG. MASS FLUX   4.877E-05
 LARGEST RESIDUAL MASS FLUX        -5.222E-14   AT NODE     459489   DOF 11
 LARGEST INCREMENT OF CONCENT.      0.276       AT NODE        640   DOF 11
 LARGEST CORRECTION TO CONCENT.     0.276       AT NODE        640   DOF 11
          THE MASS FLUX EQUILIBRIUM RESPONSE WAS LINEAR IN THIS INCREMENT

 MAXIMUM NON-PRESCRIBED INCREMENT IN NORMALIZED CONCENTRATION IS   0.276    

 ITERATION SUMMARY FOR THE INCREMENT:   1 TOTAL ITERATIONS, OF WHICH
   0 ARE SEVERE DISCONTINUITY ITERATIONS AND  1 ARE EQUILIBRIUM ITERATIONS.

 TIME INCREMENT COMPLETED  6.000E-03,  FRACTION OF STEP COMPLETED  1.000E-05
 STEP TIME COMPLETED       6.000E-03,  TOTAL TIME COMPLETED        6.000E-03
  
     ASYNCHRONOUS OUTPUT DATABASE FRAME FLUSH STARTED
  


  INCREMENT     2 STARTS. ATTEMPT NUMBER  1, TIME INCREMENT  6.000E-03

  NUMBER OF EQUATIONS =      7794     NUMBER OF RHS =    1
  NUMBER OF FLOATING PT. OPERATIONS =  2.40E+07

  USING THE DIRECT SOLVER WITH  12 PROCESSORS

     CHECK POINT   START OF SOLVER    

     CHECK POINT  END OF SOLVER       

       ELAPSED USER TIME (SEC)      =  0.20000    
       ELAPSED SYSTEM TIME (SEC)    =   0.0000    
       ELAPSED TOTAL CPU TIME (SEC) =  0.20000    
       ELAPSED WALLCLOCK TIME (SEC) =          1

               CONVERGENCE CHECKS FOR EQUILIBRIUM ITERATION     1


 AVERAGE MASS FLUX                  4.877E-05   TIME AVG. MASS FLUX   4.877E-05
 LARGEST RESIDUAL MASS FLUX         1.034E-13   AT NODE     459489   DOF 11
 LARGEST INCREMENT OF CONCENT.      0.267       AT NODE        640   DOF 11
 LARGEST CORRECTION TO CONCENT.    -9.159E-03   AT NODE        640   DOF 11
          THE MASS FLUX EQUILIBRIUM RESPONSE WAS LINEAR IN THIS INCREMENT

 MAXIMUM NON-PRESCRIBED INCREMENT IN NORMALIZED CONCENTRATION IS   0.267    

 ITERATION SUMMARY FOR THE INCREMENT:   1 TOTAL ITERATIONS, OF WHICH
   0 ARE SEVERE DISCONTINUITY ITERATIONS AND  1 ARE EQUILIBRIUM ITERATIONS.

 TIME INCREMENT COMPLETED  6.000E-03,  FRACTION OF STEP COMPLETED  2.000E-05
 STEP TIME COMPLETED       1.200E-02,  TOTAL TIME COMPLETED        1.200E-02
  
     ASYNCHRONOUS OUTPUT DATABASE FRAME FLUSH STARTED
  


  INCREMENT     3 STARTS. ATTEMPT NUMBER  1, TIME INCREMENT  6.000E-03

  NUMBER OF EQUATIONS =      7794     NUMBER OF RHS =    1
  NUMBER OF FLOATING PT. OPERATIONS =  2.40E+07

  USING THE DIRECT SOLVER WITH  12 PROCESSORS

     CHECK POINT   START OF SOLVER    

     CHECK POINT  END OF SOLVER       

       ELAPSED USER TIME (SEC)      =  0.20000    
       ELAPSED SYSTEM TIME (SEC)    =  0.10000    
       ELAPSED TOTAL CPU TIME (SEC) =  0.30000    
       ELAPSED WALLCLOCK TIME (SEC) =          0

               CONVERGENCE CHECKS FOR EQUILIBRIUM ITERATION     1


 AVERAGE MASS FLUX                  4.874E-05   TIME AVG. MASS FLUX   4.876E-05
 LARGEST RESIDUAL MASS FLUX         1.035E-13   AT NODE     591041   DOF 11
 LARGEST INCREMENT OF CONCENT.      0.258       AT NODE        640   DOF 11
 LARGEST CORRECTION TO CONCENT.    -8.760E-03   AT NODE        640   DOF 11
          THE MASS FLUX EQUILIBRIUM RESPONSE WAS LINEAR IN THIS INCREMENT

 MAXIMUM NON-PRESCRIBED INCREMENT IN NORMALIZED CONCENTRATION IS   0.258    

 ITERATION SUMMARY FOR THE INCREMENT:   1 TOTAL ITERATIONS, OF WHICH
   0 ARE SEVERE DISCONTINUITY ITERATIONS AND  1 ARE EQUILIBRIUM ITERATIONS.

 TIME INCREMENT COMPLETED  6.000E-03,  FRACTION OF STEP COMPLETED  3.000E-05
 STEP TIME COMPLETED       1.800E-02,  TOTAL TIME COMPLETED        1.800E-02
  
     ASYNCHRONOUS OUTPUT DATABASE FRAME FLUSH STARTED
  


  INCREMENT     4 STARTS. ATTEMPT NUMBER  1, TIME INCREMENT  6.000E-03

  NUMBER OF EQUATIONS =      7794     NUMBER OF RHS =    1
  NUMBER OF FLOATING PT. OPERATIONS =  2.40E+07

  USING THE DIRECT SOLVER WITH  12 PROCESSORS

     CHECK POINT   START OF SOLVER    

     CHECK POINT  END OF SOLVER       

       ELAPSED USER TIME (SEC)      =  0.20000    
       ELAPSED SYSTEM TIME (SEC)    =  0.10000    
       ELAPSED TOTAL CPU TIME (SEC) =  0.30000    
       ELAPSED WALLCLOCK TIME (SEC) =          1

               CONVERGENCE CHECKS FOR EQUILIBRIUM ITERATION     1


 AVERAGE MASS FLUX                  4.871E-05   TIME AVG. MASS FLUX   4.875E-05
 LARGEST RESIDUAL MASS FLUX         1.024E-13   AT NODE     918049   DOF 11
 LARGEST INCREMENT OF CONCENT.      0.250       AT NODE        640   DOF 11
 LARGEST CORRECTION TO CONCENT.    -8.380E-03   AT NODE        640   DOF 11
          THE MASS FLUX EQUILIBRIUM RESPONSE WAS LINEAR IN THIS INCREMENT

 MAXIMUM NON-PRESCRIBED INCREMENT IN NORMALIZED CONCENTRATION IS   0.250    

 ITERATION SUMMARY FOR THE INCREMENT:   1 TOTAL ITERATIONS, OF WHICH
   0 ARE SEVERE DISCONTINUITY ITERATIONS AND  1 ARE EQUILIBRIUM ITERATIONS.

 TIME INCREMENT COMPLETED  6.000E-03,  FRACTION OF STEP COMPLETED  4.000E-05
 STEP TIME COMPLETED       2.400E-02,  TOTAL TIME COMPLETED        2.400E-02
  
     ASYNCHRONOUS OUTPUT DATABASE FRAME FLUSH STARTED
  


  INCREMENT     5 STARTS. ATTEMPT NUMBER  1, TIME INCREMENT  6.000E-03

  NUMBER OF EQUATIONS =      7794     NUMBER OF RHS =    1
  NUMBER OF FLOATING PT. OPERATIONS =  2.40E+07

  USING THE DIRECT SOLVER WITH  12 PROCESSORS

     CHECK POINT   START OF SOLVER    

     CHECK POINT  END OF SOLVER       

       ELAPSED USER TIME (SEC)      =  0.20000    
       ELAPSED SYSTEM TIME (SEC)    =  0.10000    
       ELAPSED TOTAL CPU TIME (SEC) =  0.30000    
       ELAPSED WALLCLOCK TIME (SEC) =          0

               CONVERGENCE CHECKS FOR EQUILIBRIUM ITERATION     1


 AVERAGE MASS FLUX                  4.868E-05   TIME AVG. MASS FLUX   4.873E-05
 LARGEST RESIDUAL MASS FLUX         1.033E-13   AT NODE     787137   DOF 11
 LARGEST INCREMENT OF CONCENT.      0.242       AT NODE        640   DOF 11
 LARGEST CORRECTION TO CONCENT.    -8.019E-03   AT NODE        640   DOF 11
          THE MASS FLUX EQUILIBRIUM RESPONSE WAS LINEAR IN THIS INCREMENT

 MAXIMUM NON-PRESCRIBED INCREMENT IN NORMALIZED CONCENTRATION IS   0.242    

 ITERATION SUMMARY FOR THE INCREMENT:   1 TOTAL ITERATIONS, OF WHICH
   0 ARE SEVERE DISCONTINUITY ITERATIONS AND  1 ARE EQUILIBRIUM ITERATIONS.

 TIME INCREMENT COMPLETED  6.000E-03,  FRACTION OF STEP COMPLETED  5.000E-05
 STEP TIME COMPLETED       3.000E-02,  TOTAL TIME COMPLETED        3.000E-02
  
     ASYNCHRONOUS OUTPUT DATABASE FRAME FLUSH STARTED
  


  INCREMENT     6 STARTS. ATTEMPT NUMBER  1, TIME INCREMENT  6.000E-03

  NUMBER OF EQUATIONS =      7794     NUMBER OF RHS =    1
  NUMBER OF FLOATING PT. OPERATIONS =  2.40E+07

  USING THE DIRECT SOLVER WITH  12 PROCESSORS

     CHECK POINT   START OF SOLVER    

     CHECK POINT  END OF SOLVER       

       ELAPSED USER TIME (SEC)      =  0.30000    
       ELAPSED SYSTEM TIME (SEC)    =  0.10000    
       ELAPSED TOTAL CPU TIME (SEC) =  0.40000    
       ELAPSED WALLCLOCK TIME (SEC) =          1

               CONVERGENCE CHECKS FOR EQUILIBRIUM ITERATION     1


 AVERAGE MASS FLUX                  4.865E-05   TIME AVG. MASS FLUX   4.872E-05
 LARGEST RESIDUAL MASS FLUX        -1.013E-13   AT NODE    1377089   DOF 11
 LARGEST INCREMENT OF CONCENT.      0.234       AT NODE        640   DOF 11
 LARGEST CORRECTION TO CONCENT.    -7.676E-03   AT NODE        640   DOF 11
          THE MASS FLUX EQUILIBRIUM RESPONSE WAS LINEAR IN THIS INCREMENT

 MAXIMUM NON-PRESCRIBED INCREMENT IN NORMALIZED CONCENTRATION IS   0.234    

 ITERATION SUMMARY FOR THE INCREMENT:   1 TOTAL ITERATIONS, OF WHICH
   0 ARE SEVERE DISCONTINUITY ITERATIONS AND  1 ARE EQUILIBRIUM ITERATIONS.

 TIME INCREMENT COMPLETED  6.000E-03,  FRACTION OF STEP COMPLETED  6.000E-05
 STEP TIME COMPLETED       3.600E-02,  TOTAL TIME COMPLETED        3.600E-02
  
     ASYNCHRONOUS OUTPUT DATABASE FRAME FLUSH STARTED
  


  INCREMENT     7 STARTS. ATTEMPT NUMBER  1, TIME INCREMENT  6.000E-03

  NUMBER OF EQUATIONS =      7794     NUMBER OF RHS =    1
  NUMBER OF FLOATING PT. OPERATIONS =  2.40E+07

  USING THE DIRECT SOLVER WITH  12 PROCESSORS

     CHECK POINT   START OF SOLVER    

     CHECK POINT  END OF SOLVER       

       ELAPSED USER TIME (SEC)      =  0.10000    
       ELAPSED SYSTEM TIME (SEC)    =  0.10000    
       ELAPSED TOTAL CPU TIME (SEC) =  0.20000    
       ELAPSED WALLCLOCK TIME (SEC) =          0

               CONVERGENCE CHECKS FOR EQUILIBRIUM ITERATION     1


 AVERAGE MASS FLUX                  4.863E-05   TIME AVG. MASS FLUX   4.871E-05
 LARGEST RESIDUAL MASS FLUX        -1.026E-13   AT NODE     984577   DOF 11
 LARGEST INCREMENT OF CONCENT.      0.227       AT NODE        640   DOF 11
 LARGEST CORRECTION TO CONCENT.    -7.349E-03   AT NODE        640   DOF 11
          THE MASS FLUX EQUILIBRIUM RESPONSE WAS LINEAR IN THIS INCREMENT

 MAXIMUM NON-PRESCRIBED INCREMENT IN NORMALIZED CONCENTRATION IS   0.227    

 ITERATION SUMMARY FOR THE INCREMENT:   1 TOTAL ITERATIONS, OF WHICH
   0 ARE SEVERE DISCONTINUITY ITERATIONS AND  1 ARE EQUILIBRIUM ITERATIONS.

 TIME INCREMENT COMPLETED  6.000E-03,  FRACTION OF STEP COMPLETED  7.000E-05
 STEP TIME COMPLETED       4.200E-02,  TOTAL TIME COMPLETED        4.200E-02
  
     ASYNCHRONOUS OUTPUT DATABASE FRAME FLUSH STARTED
  


  INCREMENT     8 STARTS. ATTEMPT NUMBER  1, TIME INCREMENT  6.000E-03

  NUMBER OF EQUATIONS =      7794     NUMBER OF RHS =    1
  NUMBER OF FLOATING PT. OPERATIONS =  2.40E+07

  USING THE DIRECT SOLVER WITH  12 PROCESSORS

     CHECK POINT   START OF SOLVER    

     CHECK POINT  END OF SOLVER       

       ELAPSED USER TIME (SEC)      =  0.20000    
       ELAPSED SYSTEM TIME (SEC)    =   0.0000    
       ELAPSED TOTAL CPU TIME (SEC) =  0.20000    
       ELAPSED WALLCLOCK TIME (SEC) =          1

               CONVERGENCE CHECKS FOR EQUILIBRIUM ITERATION     1


 AVERAGE MASS FLUX                  4.860E-05   TIME AVG. MASS FLUX   4.869E-05
 LARGEST RESIDUAL MASS FLUX         1.031E-13   AT NODE     393473   DOF 11
 LARGEST INCREMENT OF CONCENT.      0.220       AT NODE        640   DOF 11
 LARGEST CORRECTION TO CONCENT.    -7.038E-03   AT NODE        640   DOF 11
          THE MASS FLUX EQUILIBRIUM RESPONSE WAS LINEAR IN THIS INCREMENT

 MAXIMUM NON-PRESCRIBED INCREMENT IN NORMALIZED CONCENTRATION IS   0.220    

 ITERATION SUMMARY FOR THE INCREMENT:   1 TOTAL ITERATIONS, OF WHICH
   0 ARE SEVERE DISCONTINUITY ITERATIONS AND  1 ARE EQUILIBRIUM ITERATIONS.

 TIME INCREMENT COMPLETED  6.000E-03,  FRACTION OF STEP COMPLETED  8.000E-05
 STEP TIME COMPLETED       4.800E-02,  TOTAL TIME COMPLETED        4.800E-02
  
     ASYNCHRONOUS OUTPUT DATABASE FRAME FLUSH STARTED
  


  INCREMENT     9 STARTS. ATTEMPT NUMBER  1, TIME INCREMENT  6.000E-03

  NUMBER OF EQUATIONS =      7794     NUMBER OF RHS =    1
  NUMBER OF FLOATING PT. OPERATIONS =  2.40E+07

  USING THE DIRECT SOLVER WITH  12 PROCESSORS

     CHECK POINT   START OF SOLVER    

     CHECK POINT  END OF SOLVER       

       ELAPSED USER TIME (SEC)      =  0.40000    
       ELAPSED SYSTEM TIME (SEC)    =   0.0000    
       ELAPSED TOTAL CPU TIME (SEC) =  0.40000    
       ELAPSED WALLCLOCK TIME (SEC) =          0

               CONVERGENCE CHECKS FOR EQUILIBRIUM ITERATION     1


 AVERAGE MASS FLUX                  4.858E-05   TIME AVG. MASS FLUX   4.868E-05
 LARGEST RESIDUAL MASS FLUX         1.029E-13   AT NODE    1376545   DOF 11
 LARGEST INCREMENT OF CONCENT.      0.213       AT NODE        640   DOF 11
 LARGEST CORRECTION TO CONCENT.    -6.742E-03   AT NODE        640   DOF 11
          THE MASS FLUX EQUILIBRIUM RESPONSE WAS LINEAR IN THIS INCREMENT

 MAXIMUM NON-PRESCRIBED INCREMENT IN NORMALIZED CONCENTRATION IS   0.213    

 ITERATION SUMMARY FOR THE INCREMENT:   1 TOTAL ITERATIONS, OF WHICH
   0 ARE SEVERE DISCONTINUITY ITERATIONS AND  1 ARE EQUILIBRIUM ITERATIONS.

 TIME INCREMENT COMPLETED  6.000E-03,  FRACTION OF STEP COMPLETED  9.000E-05
 STEP TIME COMPLETED       5.400E-02,  TOTAL TIME COMPLETED        5.400E-02
  
     ASYNCHRONOUS OUTPUT DATABASE FRAME FLUSH STARTED
  


  INCREMENT    10 STARTS. ATTEMPT NUMBER  1, TIME INCREMENT  6.000E-03

  NUMBER OF EQUATIONS =      7794     NUMBER OF RHS =    1
  NUMBER OF FLOATING PT. OPERATIONS =  2.40E+07

  USING THE DIRECT SOLVER WITH  12 PROCESSORS

     CHECK POINT   START OF SOLVER    

     CHECK POINT  END OF SOLVER       

       ELAPSED USER TIME (SEC)      =  0.10000    
       ELAPSED SYSTEM TIME (SEC)    =   0.0000    
       ELAPSED TOTAL CPU TIME (SEC) =  0.10000    
       ELAPSED WALLCLOCK TIME (SEC) =          1

               CONVERGENCE CHECKS FOR EQUILIBRIUM ITERATION     1


 AVERAGE MASS FLUX                  4.856E-05   TIME AVG. MASS FLUX   4.867E-05
 LARGEST RESIDUAL MASS FLUX        -1.035E-13   AT NODE     525601   DOF 11
 LARGEST INCREMENT OF CONCENT.      0.207       AT NODE        640   DOF 11
 LARGEST CORRECTION TO CONCENT.    -6.461E-03   AT NODE        640   DOF 11
          THE MASS FLUX EQUILIBRIUM RESPONSE WAS LINEAR IN THIS INCREMENT

 MAXIMUM NON-PRESCRIBED INCREMENT IN NORMALIZED CONCENTRATION IS   0.207    

 ITERATION SUMMARY FOR THE INCREMENT:   1 TOTAL ITERATIONS, OF WHICH
   0 ARE SEVERE DISCONTINUITY ITERATIONS AND  1 ARE EQUILIBRIUM ITERATIONS.

 TIME INCREMENT COMPLETED  6.000E-03,  FRACTION OF STEP COMPLETED  1.000E-04
 STEP TIME COMPLETED       6.000E-02,  TOTAL TIME COMPLETED        6.000E-02
  
     ASYNCHRONOUS OUTPUT DATABASE FRAME FLUSH STARTED
  


  INCREMENT    11 STARTS. ATTEMPT NUMBER  1, TIME INCREMENT  6.000E-03

  NUMBER OF EQUATIONS =      7794     NUMBER OF RHS =    1
  NUMBER OF FLOATING PT. OPERATIONS =  2.40E+07

  USING THE DIRECT SOLVER WITH  12 PROCESSORS

     CHECK POINT   START OF SOLVER    

     CHECK POINT  END OF SOLVER       

       ELAPSED USER TIME (SEC)      =  0.20000    
       ELAPSED SYSTEM TIME (SEC)    =  0.10000    
       ELAPSED TOTAL CPU TIME (SEC) =  0.30000    
       ELAPSED WALLCLOCK TIME (SEC) =          0

               CONVERGENCE CHECKS FOR EQUILIBRIUM ITERATION     1


 AVERAGE MASS FLUX                  4.854E-05   TIME AVG. MASS FLUX   4.866E-05
 LARGEST RESIDUAL MASS FLUX        -1.033E-13   AT NODE     459105   DOF 11
 LARGEST INCREMENT OF CONCENT.      0.201       AT NODE        640   DOF 11
 LARGEST CORRECTION TO CONCENT.    -6.193E-03   AT NODE        640   DOF 11
          THE MASS FLUX EQUILIBRIUM RESPONSE WAS LINEAR IN THIS INCREMENT

 MAXIMUM NON-PRESCRIBED INCREMENT IN NORMALIZED CONCENTRATION IS   0.201    

 ITERATION SUMMARY FOR THE INCREMENT:   1 TOTAL ITERATIONS, OF WHICH
   0 ARE SEVERE DISCONTINUITY ITERATIONS AND  1 ARE EQUILIBRIUM ITERATIONS.

 TIME INCREMENT COMPLETED  6.000E-03,  FRACTION OF STEP COMPLETED  1.100E-04
 STEP TIME COMPLETED       6.600E-02,  TOTAL TIME COMPLETED        6.600E-02
  
     ASYNCHRONOUS OUTPUT DATABASE FRAME FLUSH STARTED
  


  INCREMENT    12 STARTS. ATTEMPT NUMBER  1, TIME INCREMENT  6.000E-03

  NUMBER OF EQUATIONS =      7794     NUMBER OF RHS =    1
  NUMBER OF FLOATING PT. OPERATIONS =  2.40E+07

  USING THE DIRECT SOLVER WITH  12 PROCESSORS

     CHECK POINT   START OF SOLVER    

     CHECK POINT  END OF SOLVER       

       ELAPSED USER TIME (SEC)      =  0.40000    
       ELAPSED SYSTEM TIME (SEC)    =  0.10000    
       ELAPSED TOTAL CPU TIME (SEC) =  0.50000    
       ELAPSED WALLCLOCK TIME (SEC) =          1

               CONVERGENCE CHECKS FOR EQUILIBRIUM ITERATION     1


 AVERAGE MASS FLUX                  4.852E-05   TIME AVG. MASS FLUX   4.864E-05
 LARGEST RESIDUAL MASS FLUX        -1.018E-13   AT NODE      67105   DOF 11
 LARGEST INCREMENT OF CONCENT.      0.195       AT NODE        640   DOF 11
 LARGEST CORRECTION TO CONCENT.    -5.937E-03   AT NODE        640   DOF 11
          THE MASS FLUX EQUILIBRIUM RESPONSE WAS LINEAR IN THIS INCREMENT

 MAXIMUM NON-PRESCRIBED INCREMENT IN NORMALIZED CONCENTRATION IS   0.195    

 ITERATION SUMMARY FOR THE INCREMENT:   1 TOTAL ITERATIONS, OF WHICH
   0 ARE SEVERE DISCONTINUITY ITERATIONS AND  1 ARE EQUILIBRIUM ITERATIONS.

 TIME INCREMENT COMPLETED  6.000E-03,  FRACTION OF STEP COMPLETED  1.200E-04
 STEP TIME COMPLETED       7.200E-02,  TOTAL TIME COMPLETED        7.200E-02
  
     ASYNCHRONOUS OUTPUT DATABASE FRAME FLUSH STARTED
  


  INCREMENT    13 STARTS. ATTEMPT NUMBER  1, TIME INCREMENT  6.000E-03

  NUMBER OF EQUATIONS =      7794     NUMBER OF RHS =    1
  NUMBER OF FLOATING PT. OPERATIONS =  2.40E+07

  USING THE DIRECT SOLVER WITH  12 PROCESSORS

     CHECK POINT   START OF SOLVER    

     CHECK POINT  END OF SOLVER       

       ELAPSED USER TIME (SEC)      =  0.30000    
       ELAPSED SYSTEM TIME (SEC)    =   0.0000    
       ELAPSED TOTAL CPU TIME (SEC) =  0.30000    
       ELAPSED WALLCLOCK TIME (SEC) =          0

               CONVERGENCE CHECKS FOR EQUILIBRIUM ITERATION     1


 AVERAGE MASS FLUX                  4.850E-05   TIME AVG. MASS FLUX   4.863E-05
 LARGEST RESIDUAL MASS FLUX        -1.043E-13   AT NODE     786689   DOF 11
 LARGEST INCREMENT OF CONCENT.      0.189       AT NODE        640   DOF 11
 LARGEST CORRECTION TO CONCENT.    -5.694E-03   AT NODE        640   DOF 11
          THE MASS FLUX EQUILIBRIUM RESPONSE WAS LINEAR IN THIS INCREMENT

 MAXIMUM NON-PRESCRIBED INCREMENT IN NORMALIZED CONCENTRATION IS   0.189    

 ITERATION SUMMARY FOR THE INCREMENT:   1 TOTAL ITERATIONS, OF WHICH
   0 ARE SEVERE DISCONTINUITY ITERATIONS AND  1 ARE EQUILIBRIUM ITERATIONS.

 TIME INCREMENT COMPLETED  6.000E-03,  FRACTION OF STEP COMPLETED  1.300E-04
 STEP TIME COMPLETED       7.800E-02,  TOTAL TIME COMPLETED        7.800E-02
  
     ASYNCHRONOUS OUTPUT DATABASE FRAME FLUSH STARTED
  


  INCREMENT    14 STARTS. ATTEMPT NUMBER  1, TIME INCREMENT  6.000E-03

  NUMBER OF EQUATIONS =      7794     NUMBER OF RHS =    1
  NUMBER OF FLOATING PT. OPERATIONS =  2.40E+07

  USING THE DIRECT SOLVER WITH  12 PROCESSORS

     CHECK POINT   START OF SOLVER    

     CHECK POINT  END OF SOLVER       

       ELAPSED USER TIME (SEC)      =  0.10000    
       ELAPSED SYSTEM TIME (SEC)    =   0.0000    
       ELAPSED TOTAL CPU TIME (SEC) =  0.10000    
       ELAPSED WALLCLOCK TIME (SEC) =          1

               CONVERGENCE CHECKS FOR EQUILIBRIUM ITERATION     1


 AVERAGE MASS FLUX                  4.848E-05   TIME AVG. MASS FLUX   4.862E-05
 LARGEST RESIDUAL MASS FLUX         1.025E-13   AT NODE     329217   DOF 11
 LARGEST INCREMENT OF CONCENT.      0.183       AT NODE        640   DOF 11
 LARGEST CORRECTION TO CONCENT.    -5.463E-03   AT NODE        640   DOF 11
          THE MASS FLUX EQUILIBRIUM RESPONSE WAS LINEAR IN THIS INCREMENT

 MAXIMUM NON-PRESCRIBED INCREMENT IN NORMALIZED CONCENTRATION IS   0.183    

 ITERATION SUMMARY FOR THE INCREMENT:   1 TOTAL ITERATIONS, OF WHICH
   0 ARE SEVERE DISCONTINUITY ITERATIONS AND  1 ARE EQUILIBRIUM ITERATIONS.

 TIME INCREMENT COMPLETED  6.000E-03,  FRACTION OF STEP COMPLETED  1.400E-04
 STEP TIME COMPLETED       8.400E-02,  TOTAL TIME COMPLETED        8.400E-02
  
     ASYNCHRONOUS OUTPUT DATABASE FRAME FLUSH STARTED
  


  INCREMENT    15 STARTS. ATTEMPT NUMBER  1, TIME INCREMENT  6.000E-03

  NUMBER OF EQUATIONS =      7794     NUMBER OF RHS =    1
  NUMBER OF FLOATING PT. OPERATIONS =  2.40E+07

  USING THE DIRECT SOLVER WITH  12 PROCESSORS

     CHECK POINT   START OF SOLVER    

     CHECK POINT  END OF SOLVER       

       ELAPSED USER TIME (SEC)      =  0.70000    
       ELAPSED SYSTEM TIME (SEC)    =  0.10000    
       ELAPSED TOTAL CPU TIME (SEC) =  0.80000    
       ELAPSED WALLCLOCK TIME (SEC) =          0

               CONVERGENCE CHECKS FOR EQUILIBRIUM ITERATION     1


 AVERAGE MASS FLUX                  4.846E-05   TIME AVG. MASS FLUX   4.861E-05
 LARGEST RESIDUAL MASS FLUX         1.017E-13   AT NODE     917633   DOF 11
 LARGEST INCREMENT OF CONCENT.      0.178       AT NODE        640   DOF 11
 LARGEST CORRECTION TO CONCENT.    -5.242E-03   AT NODE        640   DOF 11
          THE MASS FLUX EQUILIBRIUM RESPONSE WAS LINEAR IN THIS INCREMENT

 MAXIMUM NON-PRESCRIBED INCREMENT IN NORMALIZED CONCENTRATION IS   0.178    

 ITERATION SUMMARY FOR THE INCREMENT:   1 TOTAL ITERATIONS, OF WHICH
   0 ARE SEVERE DISCONTINUITY ITERATIONS AND  1 ARE EQUILIBRIUM ITERATIONS.

 TIME INCREMENT COMPLETED  6.000E-03,  FRACTION OF STEP COMPLETED  1.500E-04
 STEP TIME COMPLETED       9.000E-02,  TOTAL TIME COMPLETED        9.000E-02
  
     ASYNCHRONOUS OUTPUT DATABASE FRAME FLUSH STARTED
  


  INCREMENT    16 STARTS. ATTEMPT NUMBER  1, TIME INCREMENT  6.000E-03

  NUMBER OF EQUATIONS =      7794     NUMBER OF RHS =    1
  NUMBER OF FLOATING PT. OPERATIONS =  2.40E+07

  USING THE DIRECT SOLVER WITH  12 PROCESSORS

     CHECK POINT   START OF SOLVER    

     CHECK POINT  END OF SOLVER       

       ELAPSED USER TIME (SEC)      =  0.20000    
       ELAPSED SYSTEM TIME (SEC)    =   0.0000    
       ELAPSED TOTAL CPU TIME (SEC) =  0.20000    
       ELAPSED WALLCLOCK TIME (SEC) =          1

               CONVERGENCE CHECKS FOR EQUILIBRIUM ITERATION     1


 AVERAGE MASS FLUX                  4.844E-05   TIME AVG. MASS FLUX   4.860E-05
 LARGEST RESIDUAL MASS FLUX         1.036E-13   AT NODE     721121   DOF 11
 LARGEST INCREMENT OF CONCENT.      0.173       AT NODE        640   DOF 11
 LARGEST CORRECTION TO CONCENT.    -5.031E-03   AT NODE        640   DOF 11
          THE MASS FLUX EQUILIBRIUM RESPONSE WAS LINEAR IN THIS INCREMENT

 MAXIMUM NON-PRESCRIBED INCREMENT IN NORMALIZED CONCENTRATION IS   0.173    

 ITERATION SUMMARY FOR THE INCREMENT:   1 TOTAL ITERATIONS, OF WHICH
   0 ARE SEVERE DISCONTINUITY ITERATIONS AND  1 ARE EQUILIBRIUM ITERATIONS.

 TIME INCREMENT COMPLETED  6.000E-03,  FRACTION OF STEP COMPLETED  1.600E-04
 STEP TIME COMPLETED       9.600E-02,  TOTAL TIME COMPLETED        9.600E-02
  
     ASYNCHRONOUS OUTPUT DATABASE FRAME FLUSH STARTED
  


  INCREMENT    17 STARTS. ATTEMPT NUMBER  1, TIME INCREMENT  6.000E-03

  NUMBER OF EQUATIONS =      7794     NUMBER OF RHS =    1
  NUMBER OF FLOATING PT. OPERATIONS =  2.40E+07

  USING THE DIRECT SOLVER WITH  12 PROCESSORS

     CHECK POINT   START OF SOLVER    

     CHECK POINT  END OF SOLVER       

       ELAPSED USER TIME (SEC)      =  0.30000    
       ELAPSED SYSTEM TIME (SEC)    =   0.0000    
       ELAPSED TOTAL CPU TIME (SEC) =  0.30000    
       ELAPSED WALLCLOCK TIME (SEC) =          0

               CONVERGENCE CHECKS FOR EQUILIBRIUM ITERATION     1


 AVERAGE MASS FLUX                  4.842E-05   TIME AVG. MASS FLUX   4.859E-05
 LARGEST RESIDUAL MASS FLUX         1.024E-13   AT NODE    1246369   DOF 11
 LARGEST INCREMENT OF CONCENT.      0.168       AT NODE        640   DOF 11
 LARGEST CORRECTION TO CONCENT.    -4.831E-03   AT NODE        640   DOF 11
          THE MASS FLUX EQUILIBRIUM RESPONSE WAS LINEAR IN THIS INCREMENT

 MAXIMUM NON-PRESCRIBED INCREMENT IN NORMALIZED CONCENTRATION IS   0.168    

 ITERATION SUMMARY FOR THE INCREMENT:   1 TOTAL ITERATIONS, OF WHICH
   0 ARE SEVERE DISCONTINUITY ITERATIONS AND  1 ARE EQUILIBRIUM ITERATIONS.

 TIME INCREMENT COMPLETED  6.000E-03,  FRACTION OF STEP COMPLETED  1.700E-04
 STEP TIME COMPLETED       0.102    ,  TOTAL TIME COMPLETED        0.102    
  
     ASYNCHRONOUS OUTPUT DATABASE FRAME FLUSH STARTED
  


  INCREMENT    18 STARTS. ATTEMPT NUMBER  1, TIME INCREMENT  6.000E-03

  NUMBER OF EQUATIONS =      7794     NUMBER OF RHS =    1
  NUMBER OF FLOATING PT. OPERATIONS =  2.40E+07

  USING THE DIRECT SOLVER WITH  12 PROCESSORS

     CHECK POINT   START OF SOLVER    

     CHECK POINT  END OF SOLVER       

       ELAPSED USER TIME (SEC)      =  0.30000    
       ELAPSED SYSTEM TIME (SEC)    =  0.10000    
       ELAPSED TOTAL CPU TIME (SEC) =  0.40000    
       ELAPSED WALLCLOCK TIME (SEC) =          1

               CONVERGENCE CHECKS FOR EQUILIBRIUM ITERATION     1


 AVERAGE MASS FLUX                  4.840E-05   TIME AVG. MASS FLUX   4.858E-05
 LARGEST RESIDUAL MASS FLUX        -1.019E-13   AT NODE    1114625   DOF 11
 LARGEST INCREMENT OF CONCENT.      0.164       AT NODE        640   DOF 11
 LARGEST CORRECTION TO CONCENT.    -4.639E-03   AT NODE        640   DOF 11
          THE MASS FLUX EQUILIBRIUM RESPONSE WAS LINEAR IN THIS INCREMENT

 MAXIMUM NON-PRESCRIBED INCREMENT IN NORMALIZED CONCENTRATION IS   0.164    

 ITERATION SUMMARY FOR THE INCREMENT:   1 TOTAL ITERATIONS, OF WHICH
   0 ARE SEVERE DISCONTINUITY ITERATIONS AND  1 ARE EQUILIBRIUM ITERATIONS.

 TIME INCREMENT COMPLETED  6.000E-03,  FRACTION OF STEP COMPLETED  1.800E-04
 STEP TIME COMPLETED       0.108    ,  TOTAL TIME COMPLETED        0.108    
  
     ASYNCHRONOUS OUTPUT DATABASE FRAME FLUSH STARTED
  


  INCREMENT    19 STARTS. ATTEMPT NUMBER  1, TIME INCREMENT  6.000E-03

  NUMBER OF EQUATIONS =      7794     NUMBER OF RHS =    1
  NUMBER OF FLOATING PT. OPERATIONS =  2.40E+07

  USING THE DIRECT SOLVER WITH  12 PROCESSORS

     CHECK POINT   START OF SOLVER    

     CHECK POINT  END OF SOLVER       

       ELAPSED USER TIME (SEC)      =  0.10000    
       ELAPSED SYSTEM TIME (SEC)    =  0.10000    
       ELAPSED TOTAL CPU TIME (SEC) =  0.20000    
       ELAPSED WALLCLOCK TIME (SEC) =          0

               CONVERGENCE CHECKS FOR EQUILIBRIUM ITERATION     1


 AVERAGE MASS FLUX                  4.838E-05   TIME AVG. MASS FLUX   4.857E-05
 LARGEST RESIDUAL MASS FLUX         1.030E-13   AT NODE    1115201   DOF 11
 LARGEST INCREMENT OF CONCENT.      0.159       AT NODE        640   DOF 11
 LARGEST CORRECTION TO CONCENT.    -4.457E-03   AT NODE        640   DOF 11
          THE MASS FLUX EQUILIBRIUM RESPONSE WAS LINEAR IN THIS INCREMENT

 MAXIMUM NON-PRESCRIBED INCREMENT IN NORMALIZED CONCENTRATION IS   0.159    

 ITERATION SUMMARY FOR THE INCREMENT:   1 TOTAL ITERATIONS, OF WHICH
   0 ARE SEVERE DISCONTINUITY ITERATIONS AND  1 ARE EQUILIBRIUM ITERATIONS.

 TIME INCREMENT COMPLETED  6.000E-03,  FRACTION OF STEP COMPLETED  1.900E-04
 STEP TIME COMPLETED       0.114    ,  TOTAL TIME COMPLETED        0.114    
  
     ASYNCHRONOUS OUTPUT DATABASE FRAME FLUSH STARTED
  


  INCREMENT    20 STARTS. ATTEMPT NUMBER  1, TIME INCREMENT  6.000E-03

  NUMBER OF EQUATIONS =      7794     NUMBER OF RHS =    1
  NUMBER OF FLOATING PT. OPERATIONS =  2.40E+07

  USING THE DIRECT SOLVER WITH  12 PROCESSORS

     CHECK POINT   START OF SOLVER    

     CHECK POINT  END OF SOLVER       

       ELAPSED USER TIME (SEC)      =  0.20000    
       ELAPSED SYSTEM TIME (SEC)    =   0.0000    
       ELAPSED TOTAL CPU TIME (SEC) =  0.20000    
       ELAPSED WALLCLOCK TIME (SEC) =          1

               CONVERGENCE CHECKS FOR EQUILIBRIUM ITERATION     1


 AVERAGE MASS FLUX                  4.837E-05   TIME AVG. MASS FLUX   4.856E-05
 LARGEST RESIDUAL MASS FLUX        -1.033E-13   AT NODE     328737   DOF 11
 LARGEST INCREMENT OF CONCENT.      0.155       AT NODE        640   DOF 11
 LARGEST CORRECTION TO CONCENT.    -4.283E-03   AT NODE        640   DOF 11
          THE MASS FLUX EQUILIBRIUM RESPONSE WAS LINEAR IN THIS INCREMENT

 MAXIMUM NON-PRESCRIBED INCREMENT IN NORMALIZED CONCENTRATION IS   0.155    

 ITERATION SUMMARY FOR THE INCREMENT:   1 TOTAL ITERATIONS, OF WHICH
   0 ARE SEVERE DISCONTINUITY ITERATIONS AND  1 ARE EQUILIBRIUM ITERATIONS.

 TIME INCREMENT COMPLETED  6.000E-03,  FRACTION OF STEP COMPLETED  2.000E-04
 STEP TIME COMPLETED       0.120    ,  TOTAL TIME COMPLETED        0.120    
  
     ASYNCHRONOUS OUTPUT DATABASE FRAME FLUSH STARTED
  


  INCREMENT    21 STARTS. ATTEMPT NUMBER  1, TIME INCREMENT  6.000E-03

  NUMBER OF EQUATIONS =      7794     NUMBER OF RHS =    1
  NUMBER OF FLOATING PT. OPERATIONS =  2.40E+07

  USING THE DIRECT SOLVER WITH  12 PROCESSORS

     CHECK POINT   START OF SOLVER    

     CHECK POINT  END OF SOLVER       

       ELAPSED USER TIME (SEC)      =  0.30000    
       ELAPSED SYSTEM TIME (SEC)    =   0.0000    
       ELAPSED TOTAL CPU TIME (SEC) =  0.30000    
       ELAPSED WALLCLOCK TIME (SEC) =          0

               CONVERGENCE CHECKS FOR EQUILIBRIUM ITERATION     1


 AVERAGE MASS FLUX                  4.835E-05   TIME AVG. MASS FLUX   4.855E-05
 LARGEST RESIDUAL MASS FLUX         1.034E-13   AT NODE    1180289   DOF 11
 LARGEST INCREMENT OF CONCENT.      0.151       AT NODE        640   DOF 11
 LARGEST CORRECTION TO CONCENT.    -4.116E-03   AT NODE        640   DOF 11
          THE MASS FLUX EQUILIBRIUM RESPONSE WAS LINEAR IN THIS INCREMENT

 MAXIMUM NON-PRESCRIBED INCREMENT IN NORMALIZED CONCENTRATION IS   0.151    

 ITERATION SUMMARY FOR THE INCREMENT:   1 TOTAL ITERATIONS, OF WHICH
   0 ARE SEVERE DISCONTINUITY ITERATIONS AND  1 ARE EQUILIBRIUM ITERATIONS.

 TIME INCREMENT COMPLETED  6.000E-03,  FRACTION OF STEP COMPLETED  2.100E-04
 STEP TIME COMPLETED       0.126    ,  TOTAL TIME COMPLETED        0.126    
  
     ASYNCHRONOUS OUTPUT DATABASE FRAME FLUSH STARTED
  


  INCREMENT    22 STARTS. ATTEMPT NUMBER  1, TIME INCREMENT  6.000E-03

  NUMBER OF EQUATIONS =      7794     NUMBER OF RHS =    1
  NUMBER OF FLOATING PT. OPERATIONS =  2.40E+07

  USING THE DIRECT SOLVER WITH  12 PROCESSORS

     CHECK POINT   START OF SOLVER    

     CHECK POINT  END OF SOLVER       

       ELAPSED USER TIME (SEC)      =  0.30000    
       ELAPSED SYSTEM TIME (SEC)    =  0.10000    
       ELAPSED TOTAL CPU TIME (SEC) =  0.40000    
       ELAPSED WALLCLOCK TIME (SEC) =          1

               CONVERGENCE CHECKS FOR EQUILIBRIUM ITERATION     1


 AVERAGE MASS FLUX                  4.833E-05   TIME AVG. MASS FLUX   4.854E-05
 LARGEST RESIDUAL MASS FLUX        -9.906E-14   AT NODE    1246337   DOF 11
 LARGEST INCREMENT OF CONCENT.      0.147       AT NODE        640   DOF 11
 LARGEST CORRECTION TO CONCENT.    -3.958E-03   AT NODE        640   DOF 11
          THE MASS FLUX EQUILIBRIUM RESPONSE WAS LINEAR IN THIS INCREMENT

 MAXIMUM NON-PRESCRIBED INCREMENT IN NORMALIZED CONCENTRATION IS   0.147    

 ITERATION SUMMARY FOR THE INCREMENT:   1 TOTAL ITERATIONS, OF WHICH
   0 ARE SEVERE DISCONTINUITY ITERATIONS AND  1 ARE EQUILIBRIUM ITERATIONS.

 TIME INCREMENT COMPLETED  6.000E-03,  FRACTION OF STEP COMPLETED  2.200E-04
 STEP TIME COMPLETED       0.132    ,  TOTAL TIME COMPLETED        0.132    
  
     ASYNCHRONOUS OUTPUT DATABASE FRAME FLUSH STARTED
  


  INCREMENT    23 STARTS. ATTEMPT NUMBER  1, TIME INCREMENT  6.000E-03

  NUMBER OF EQUATIONS =      7794     NUMBER OF RHS =    1
  NUMBER OF FLOATING PT. OPERATIONS =  2.40E+07

  USING THE DIRECT SOLVER WITH  12 PROCESSORS

     CHECK POINT   START OF SOLVER    

     CHECK POINT  END OF SOLVER       

       ELAPSED USER TIME (SEC)      =  0.10000    
       ELAPSED SYSTEM TIME (SEC)    =   0.0000    
       ELAPSED TOTAL CPU TIME (SEC) =  0.10000    
       ELAPSED WALLCLOCK TIME (SEC) =          0

               CONVERGENCE CHECKS FOR EQUILIBRIUM ITERATION     1


 AVERAGE MASS FLUX                  4.832E-05   TIME AVG. MASS FLUX   4.853E-05
 LARGEST RESIDUAL MASS FLUX        -1.017E-13   AT NODE    1049825   DOF 11
 LARGEST INCREMENT OF CONCENT.      0.143       AT NODE        640   DOF 11
 LARGEST CORRECTION TO CONCENT.    -3.807E-03   AT NODE        640   DOF 11
          THE MASS FLUX EQUILIBRIUM RESPONSE WAS LINEAR IN THIS INCREMENT

 MAXIMUM NON-PRESCRIBED INCREMENT IN NORMALIZED CONCENTRATION IS   0.143    

 ITERATION SUMMARY FOR THE INCREMENT:   1 TOTAL ITERATIONS, OF WHICH
   0 ARE SEVERE DISCONTINUITY ITERATIONS AND  1 ARE EQUILIBRIUM ITERATIONS.

 TIME INCREMENT COMPLETED  6.000E-03,  FRACTION OF STEP COMPLETED  2.300E-04
 STEP TIME COMPLETED       0.138    ,  TOTAL TIME COMPLETED        0.138    
  
     ASYNCHRONOUS OUTPUT DATABASE FRAME FLUSH STARTED
  


  INCREMENT    24 STARTS. ATTEMPT NUMBER  1, TIME INCREMENT  6.000E-03

  NUMBER OF EQUATIONS =      7794     NUMBER OF RHS =    1
  NUMBER OF FLOATING PT. OPERATIONS =  2.40E+07

  USING THE DIRECT SOLVER WITH  12 PROCESSORS

     CHECK POINT   START OF SOLVER    

     CHECK POINT  END OF SOLVER       

       ELAPSED USER TIME (SEC)      =  0.20000    
       ELAPSED SYSTEM TIME (SEC)    =  0.10000    
       ELAPSED TOTAL CPU TIME (SEC) =  0.30000    
       ELAPSED WALLCLOCK TIME (SEC) =          1

               CONVERGENCE CHECKS FOR EQUILIBRIUM ITERATION     1


 AVERAGE MASS FLUX                  4.830E-05   TIME AVG. MASS FLUX   4.852E-05
 LARGEST RESIDUAL MASS FLUX         1.015E-13   AT NODE    1311361   DOF 11
 LARGEST INCREMENT OF CONCENT.      0.139       AT NODE        640   DOF 11
 LARGEST CORRECTION TO CONCENT.    -3.662E-03   AT NODE        640   DOF 11
          THE MASS FLUX EQUILIBRIUM RESPONSE WAS LINEAR IN THIS INCREMENT

 MAXIMUM NON-PRESCRIBED INCREMENT IN NORMALIZED CONCENTRATION IS   0.139    

 ITERATION SUMMARY FOR THE INCREMENT:   1 TOTAL ITERATIONS, OF WHICH
   0 ARE SEVERE DISCONTINUITY ITERATIONS AND  1 ARE EQUILIBRIUM ITERATIONS.

 TIME INCREMENT COMPLETED  6.000E-03,  FRACTION OF STEP COMPLETED  2.400E-04
 STEP TIME COMPLETED       0.144    ,  TOTAL TIME COMPLETED        0.144    
  
     ASYNCHRONOUS OUTPUT DATABASE FRAME FLUSH STARTED
  


  INCREMENT    25 STARTS. ATTEMPT NUMBER  1, TIME INCREMENT  6.000E-03

  NUMBER OF EQUATIONS =      7794     NUMBER OF RHS =    1
  NUMBER OF FLOATING PT. OPERATIONS =  2.40E+07

  USING THE DIRECT SOLVER WITH  12 PROCESSORS

     CHECK POINT   START OF SOLVER    

     CHECK POINT  END OF SOLVER       

       ELAPSED USER TIME (SEC)      =  0.20000    
       ELAPSED SYSTEM TIME (SEC)    =  0.10000    
       ELAPSED TOTAL CPU TIME (SEC) =  0.30000    
       ELAPSED WALLCLOCK TIME (SEC) =          0

               CONVERGENCE CHECKS FOR EQUILIBRIUM ITERATION     1


 AVERAGE MASS FLUX                  4.828E-05   TIME AVG. MASS FLUX   4.851E-05
 LARGEST RESIDUAL MASS FLUX        -1.012E-13   AT NODE     786561   DOF 11
 LARGEST INCREMENT OF CONCENT.      0.136       AT NODE        640   DOF 11
 LARGEST CORRECTION TO CONCENT.    -3.524E-03   AT NODE        640   DOF 11
          THE MASS FLUX EQUILIBRIUM RESPONSE WAS LINEAR IN THIS INCREMENT

 MAXIMUM NON-PRESCRIBED INCREMENT IN NORMALIZED CONCENTRATION IS   0.136    

 ITERATION SUMMARY FOR THE INCREMENT:   1 TOTAL ITERATIONS, OF WHICH
   0 ARE SEVERE DISCONTINUITY ITERATIONS AND  1 ARE EQUILIBRIUM ITERATIONS.

 TIME INCREMENT COMPLETED  6.000E-03,  FRACTION OF STEP COMPLETED  2.500E-04
 STEP TIME COMPLETED       0.150    ,  TOTAL TIME COMPLETED        0.150    
  
     ASYNCHRONOUS OUTPUT DATABASE FRAME FLUSH STARTED
  


  INCREMENT    26 STARTS. ATTEMPT NUMBER  1, TIME INCREMENT  6.000E-03

  NUMBER OF EQUATIONS =      7794     NUMBER OF RHS =    1
  NUMBER OF FLOATING PT. OPERATIONS =  2.40E+07

  USING THE DIRECT SOLVER WITH  12 PROCESSORS

     CHECK POINT   START OF SOLVER    

     CHECK POINT  END OF SOLVER       

       ELAPSED USER TIME (SEC)      =  0.20000    
       ELAPSED SYSTEM TIME (SEC)    =   0.0000    
       ELAPSED TOTAL CPU TIME (SEC) =  0.20000    
       ELAPSED WALLCLOCK TIME (SEC) =          1

               CONVERGENCE CHECKS FOR EQUILIBRIUM ITERATION     1


 AVERAGE MASS FLUX                  4.826E-05   TIME AVG. MASS FLUX   4.850E-05
 LARGEST RESIDUAL MASS FLUX         1.032E-13   AT NODE     853281   DOF 11
 LARGEST INCREMENT OF CONCENT.      0.133       AT NODE        640   DOF 11
 LARGEST CORRECTION TO CONCENT.    -3.392E-03   AT NODE        640   DOF 11
          THE MASS FLUX EQUILIBRIUM RESPONSE WAS LINEAR IN THIS INCREMENT

 MAXIMUM NON-PRESCRIBED INCREMENT IN NORMALIZED CONCENTRATION IS   0.133    

 ITERATION SUMMARY FOR THE INCREMENT:   1 TOTAL ITERATIONS, OF WHICH
   0 ARE SEVERE DISCONTINUITY ITERATIONS AND  1 ARE EQUILIBRIUM ITERATIONS.

 TIME INCREMENT COMPLETED  6.000E-03,  FRACTION OF STEP COMPLETED  2.600E-04
 STEP TIME COMPLETED       0.156    ,  TOTAL TIME COMPLETED        0.156    
  
     ASYNCHRONOUS OUTPUT DATABASE FRAME FLUSH STARTED
  


  INCREMENT    27 STARTS. ATTEMPT NUMBER  1, TIME INCREMENT  6.000E-03

  NUMBER OF EQUATIONS =      7794     NUMBER OF RHS =    1
  NUMBER OF FLOATING PT. OPERATIONS =  2.40E+07

  USING THE DIRECT SOLVER WITH  12 PROCESSORS

     CHECK POINT   START OF SOLVER    

     CHECK POINT  END OF SOLVER       

       ELAPSED USER TIME (SEC)      =  0.20000    
       ELAPSED SYSTEM TIME (SEC)    =  0.10000    
       ELAPSED TOTAL CPU TIME (SEC) =  0.30000    
       ELAPSED WALLCLOCK TIME (SEC) =          0

               CONVERGENCE CHECKS FOR EQUILIBRIUM ITERATION     1


 AVERAGE MASS FLUX                  4.825E-05   TIME AVG. MASS FLUX   4.849E-05
 LARGEST RESIDUAL MASS FLUX         1.024E-13   AT NODE    1836193   DOF 11
 LARGEST INCREMENT OF CONCENT.      0.129       AT NODE        640   DOF 11
 LARGEST CORRECTION TO CONCENT.    -3.266E-03   AT NODE        640   DOF 11
          THE MASS FLUX EQUILIBRIUM RESPONSE WAS LINEAR IN THIS INCREMENT

 MAXIMUM NON-PRESCRIBED INCREMENT IN NORMALIZED CONCENTRATION IS   0.129    

 ITERATION SUMMARY FOR THE INCREMENT:   1 TOTAL ITERATIONS, OF WHICH
   0 ARE SEVERE DISCONTINUITY ITERATIONS AND  1 ARE EQUILIBRIUM ITERATIONS.

 TIME INCREMENT COMPLETED  6.000E-03,  FRACTION OF STEP COMPLETED  2.700E-04
 STEP TIME COMPLETED       0.162    ,  TOTAL TIME COMPLETED        0.162    
  
     ASYNCHRONOUS OUTPUT DATABASE FRAME FLUSH STARTED
  


  INCREMENT    28 STARTS. ATTEMPT NUMBER  1, TIME INCREMENT  6.000E-03

  NUMBER OF EQUATIONS =      7794     NUMBER OF RHS =    1
  NUMBER OF FLOATING PT. OPERATIONS =  2.40E+07

  USING THE DIRECT SOLVER WITH  12 PROCESSORS

     CHECK POINT   START OF SOLVER    

     CHECK POINT  END OF SOLVER       

       ELAPSED USER TIME (SEC)      =  0.20000    
       ELAPSED SYSTEM TIME (SEC)    =   0.0000    
       ELAPSED TOTAL CPU TIME (SEC) =  0.20000    
       ELAPSED WALLCLOCK TIME (SEC) =          1

               CONVERGENCE CHECKS FOR EQUILIBRIUM ITERATION     1


 AVERAGE MASS FLUX                  4.823E-05   TIME AVG. MASS FLUX   4.848E-05
 LARGEST RESIDUAL MASS FLUX        -1.001E-13   AT NODE    1573025   DOF 11
 LARGEST INCREMENT OF CONCENT.      0.126       AT NODE        640   DOF 11
 LARGEST CORRECTION TO CONCENT.    -3.146E-03   AT NODE        640   DOF 11
          THE MASS FLUX EQUILIBRIUM RESPONSE WAS LINEAR IN THIS INCREMENT

 MAXIMUM NON-PRESCRIBED INCREMENT IN NORMALIZED CONCENTRATION IS   0.126    
          TIME INCREMENT MAY NOW INCREASE TO    1.142E-02

 ITERATION SUMMARY FOR THE INCREMENT:   1 TOTAL ITERATIONS, OF WHICH
   0 ARE SEVERE DISCONTINUITY ITERATIONS AND  1 ARE EQUILIBRIUM ITERATIONS.

 TIME INCREMENT COMPLETED  6.000E-03,  FRACTION OF STEP COMPLETED  2.800E-04
 STEP TIME COMPLETED       0.168    ,  TOTAL TIME COMPLETED        0.168    
  
     ASYNCHRONOUS OUTPUT DATABASE FRAME FLUSH STARTED
  


  INCREMENT    29 STARTS. ATTEMPT NUMBER  1, TIME INCREMENT  1.142E-02

  NUMBER OF EQUATIONS =      7794     NUMBER OF RHS =    1
  NUMBER OF FLOATING PT. OPERATIONS =  2.40E+07

  USING THE DIRECT SOLVER WITH  12 PROCESSORS

     CHECK POINT   START OF SOLVER    

     CHECK POINT  END OF SOLVER       

       ELAPSED USER TIME (SEC)      =  0.20000    
       ELAPSED SYSTEM TIME (SEC)    =   0.0000    
       ELAPSED TOTAL CPU TIME (SEC) =  0.20000    
       ELAPSED WALLCLOCK TIME (SEC) =          0

               CONVERGENCE CHECKS FOR EQUILIBRIUM ITERATION     1


 AVERAGE MASS FLUX                  4.820E-05   TIME AVG. MASS FLUX   4.847E-05
 LARGEST RESIDUAL MASS FLUX         5.182E-14   AT NODE    1900993   DOF 11
 LARGEST INCREMENT OF CONCENT.      0.229       AT NODE        640   DOF 11
 LARGEST CORRECTION TO CONCENT.    -1.063E-02   AT NODE        640   DOF 11
          THE MASS FLUX EQUILIBRIUM RESPONSE WAS LINEAR IN THIS INCREMENT

 MAXIMUM NON-PRESCRIBED INCREMENT IN NORMALIZED CONCENTRATION IS   0.229    

 ITERATION SUMMARY FOR THE INCREMENT:   1 TOTAL ITERATIONS, OF WHICH
   0 ARE SEVERE DISCONTINUITY ITERATIONS AND  1 ARE EQUILIBRIUM ITERATIONS.

 TIME INCREMENT COMPLETED  1.142E-02,  FRACTION OF STEP COMPLETED  2.990E-04
 STEP TIME COMPLETED       0.179    ,  TOTAL TIME COMPLETED        0.179    
  
     ASYNCHRONOUS OUTPUT DATABASE FRAME FLUSH STARTED
  


  INCREMENT    30 STARTS. ATTEMPT NUMBER  1, TIME INCREMENT  1.142E-02

  NUMBER OF EQUATIONS =      7794     NUMBER OF RHS =    1
  NUMBER OF FLOATING PT. OPERATIONS =  2.40E+07

  USING THE DIRECT SOLVER WITH  12 PROCESSORS

     CHECK POINT   START OF SOLVER    

     CHECK POINT  END OF SOLVER       

       ELAPSED USER TIME (SEC)      =  0.20000    
       ELAPSED SYSTEM TIME (SEC)    =  0.10000    
       ELAPSED TOTAL CPU TIME (SEC) =  0.30000    
       ELAPSED WALLCLOCK TIME (SEC) =          1

               CONVERGENCE CHECKS FOR EQUILIBRIUM ITERATION     1


 AVERAGE MASS FLUX                  4.817E-05   TIME AVG. MASS FLUX   4.846E-05
 LARGEST RESIDUAL MASS FLUX         5.416E-14   AT NODE    1639265   DOF 11
 LARGEST INCREMENT OF CONCENT.      0.219       AT NODE        640   DOF 11
 LARGEST CORRECTION TO CONCENT.    -9.924E-03   AT NODE        640   DOF 11
          THE MASS FLUX EQUILIBRIUM RESPONSE WAS LINEAR IN THIS INCREMENT

 MAXIMUM NON-PRESCRIBED INCREMENT IN NORMALIZED CONCENTRATION IS   0.219    

 ITERATION SUMMARY FOR THE INCREMENT:   1 TOTAL ITERATIONS, OF WHICH
   0 ARE SEVERE DISCONTINUITY ITERATIONS AND  1 ARE EQUILIBRIUM ITERATIONS.

 TIME INCREMENT COMPLETED  1.142E-02,  FRACTION OF STEP COMPLETED  3.181E-04
 STEP TIME COMPLETED       0.191    ,  TOTAL TIME COMPLETED        0.191    
  
     ASYNCHRONOUS OUTPUT DATABASE FRAME FLUSH STARTED
  


  INCREMENT    31 STARTS. ATTEMPT NUMBER  1, TIME INCREMENT  1.142E-02

  NUMBER OF EQUATIONS =      7794     NUMBER OF RHS =    1
  NUMBER OF FLOATING PT. OPERATIONS =  2.40E+07

  USING THE DIRECT SOLVER WITH  12 PROCESSORS

     CHECK POINT   START OF SOLVER    

     CHECK POINT  END OF SOLVER       

       ELAPSED USER TIME (SEC)      =  0.20000    
       ELAPSED SYSTEM TIME (SEC)    =  0.10000    
       ELAPSED TOTAL CPU TIME (SEC) =  0.30000    
       ELAPSED WALLCLOCK TIME (SEC) =          0

               CONVERGENCE CHECKS FOR EQUILIBRIUM ITERATION     1


 AVERAGE MASS FLUX                  4.814E-05   TIME AVG. MASS FLUX   4.845E-05
 LARGEST RESIDUAL MASS FLUX         5.408E-14   AT NODE    1376897   DOF 11
 LARGEST INCREMENT OF CONCENT.      0.210       AT NODE        640   DOF 11
 LARGEST CORRECTION TO CONCENT.    -9.277E-03   AT NODE        640   DOF 11
          THE MASS FLUX EQUILIBRIUM RESPONSE WAS LINEAR IN THIS INCREMENT

 MAXIMUM NON-PRESCRIBED INCREMENT IN NORMALIZED CONCENTRATION IS   0.210    

 ITERATION SUMMARY FOR THE INCREMENT:   1 TOTAL ITERATIONS, OF WHICH
   0 ARE SEVERE DISCONTINUITY ITERATIONS AND  1 ARE EQUILIBRIUM ITERATIONS.

 TIME INCREMENT COMPLETED  1.142E-02,  FRACTION OF STEP COMPLETED  3.371E-04
 STEP TIME COMPLETED       0.202    ,  TOTAL TIME COMPLETED        0.202    
  
     ASYNCHRONOUS OUTPUT DATABASE FRAME FLUSH STARTED
  


  INCREMENT    32 STARTS. ATTEMPT NUMBER  1, TIME INCREMENT  1.142E-02

  NUMBER OF EQUATIONS =      7794     NUMBER OF RHS =    1
  NUMBER OF FLOATING PT. OPERATIONS =  2.40E+07

  USING THE DIRECT SOLVER WITH  12 PROCESSORS

     CHECK POINT   START OF SOLVER    

     CHECK POINT  END OF SOLVER       

       ELAPSED USER TIME (SEC)      =  0.10000    
       ELAPSED SYSTEM TIME (SEC)    =  0.10000    
       ELAPSED TOTAL CPU TIME (SEC) =  0.20000    
       ELAPSED WALLCLOCK TIME (SEC) =          1

               CONVERGENCE CHECKS FOR EQUILIBRIUM ITERATION     1


 AVERAGE MASS FLUX                  4.811E-05   TIME AVG. MASS FLUX   4.844E-05
 LARGEST RESIDUAL MASS FLUX         5.313E-14   AT NODE     263681   DOF 11
 LARGEST INCREMENT OF CONCENT.      0.201       AT NODE        640   DOF 11
 LARGEST CORRECTION TO CONCENT.    -8.681E-03   AT NODE        640   DOF 11
          THE MASS FLUX EQUILIBRIUM RESPONSE WAS LINEAR IN THIS INCREMENT

 MAXIMUM NON-PRESCRIBED INCREMENT IN NORMALIZED CONCENTRATION IS   0.201    

 ITERATION SUMMARY FOR THE INCREMENT:   1 TOTAL ITERATIONS, OF WHICH
   0 ARE SEVERE DISCONTINUITY ITERATIONS AND  1 ARE EQUILIBRIUM ITERATIONS.

 TIME INCREMENT COMPLETED  1.142E-02,  FRACTION OF STEP COMPLETED  3.561E-04
 STEP TIME COMPLETED       0.214    ,  TOTAL TIME COMPLETED        0.214    
  
     ASYNCHRONOUS OUTPUT DATABASE FRAME FLUSH STARTED
  


  INCREMENT    33 STARTS. ATTEMPT NUMBER  1, TIME INCREMENT  1.142E-02

  NUMBER OF EQUATIONS =      7794     NUMBER OF RHS =    1
  NUMBER OF FLOATING PT. OPERATIONS =  2.40E+07

  USING THE DIRECT SOLVER WITH  12 PROCESSORS

     CHECK POINT   START OF SOLVER    

     CHECK POINT  END OF SOLVER       

       ELAPSED USER TIME (SEC)      =  0.30000    
       ELAPSED SYSTEM TIME (SEC)    =  0.10000    
       ELAPSED TOTAL CPU TIME (SEC) =  0.40000    
       ELAPSED WALLCLOCK TIME (SEC) =          0

               CONVERGENCE CHECKS FOR EQUILIBRIUM ITERATION     1


 AVERAGE MASS FLUX                  4.809E-05   TIME AVG. MASS FLUX   4.843E-05
 LARGEST RESIDUAL MASS FLUX         5.430E-14   AT NODE    1049121   DOF 11
 LARGEST INCREMENT OF CONCENT.      0.193       AT NODE        640   DOF 11
 LARGEST CORRECTION TO CONCENT.    -8.131E-03   AT NODE        640   DOF 11
          THE MASS FLUX EQUILIBRIUM RESPONSE WAS LINEAR IN THIS INCREMENT

 MAXIMUM NON-PRESCRIBED INCREMENT IN NORMALIZED CONCENTRATION IS   0.193    

 ITERATION SUMMARY FOR THE INCREMENT:   1 TOTAL ITERATIONS, OF WHICH
   0 ARE SEVERE DISCONTINUITY ITERATIONS AND  1 ARE EQUILIBRIUM ITERATIONS.

 TIME INCREMENT COMPLETED  1.142E-02,  FRACTION OF STEP COMPLETED  3.751E-04
 STEP TIME COMPLETED       0.225    ,  TOTAL TIME COMPLETED        0.225    
  
     ASYNCHRONOUS OUTPUT DATABASE FRAME FLUSH STARTED
  


  INCREMENT    34 STARTS. ATTEMPT NUMBER  1, TIME INCREMENT  1.142E-02

  NUMBER OF EQUATIONS =      7794     NUMBER OF RHS =    1
  NUMBER OF FLOATING PT. OPERATIONS =  2.40E+07

  USING THE DIRECT SOLVER WITH  12 PROCESSORS

     CHECK POINT   START OF SOLVER    

     CHECK POINT  END OF SOLVER       

       ELAPSED USER TIME (SEC)      =  0.40000    
       ELAPSED SYSTEM TIME (SEC)    =  0.10000    
       ELAPSED TOTAL CPU TIME (SEC) =  0.50000    
       ELAPSED WALLCLOCK TIME (SEC) =          1

               CONVERGENCE CHECKS FOR EQUILIBRIUM ITERATION     1


 AVERAGE MASS FLUX                  4.806E-05   TIME AVG. MASS FLUX   4.842E-05
 LARGEST RESIDUAL MASS FLUX        -5.237E-14   AT NODE    1704641   DOF 11
 LARGEST INCREMENT OF CONCENT.      0.186       AT NODE        640   DOF 11
 LARGEST CORRECTION TO CONCENT.    -7.624E-03   AT NODE        640   DOF 11
          THE MASS FLUX EQUILIBRIUM RESPONSE WAS LINEAR IN THIS INCREMENT

 MAXIMUM NON-PRESCRIBED INCREMENT IN NORMALIZED CONCENTRATION IS   0.186    

 ITERATION SUMMARY FOR THE INCREMENT:   1 TOTAL ITERATIONS, OF WHICH
   0 ARE SEVERE DISCONTINUITY ITERATIONS AND  1 ARE EQUILIBRIUM ITERATIONS.

 TIME INCREMENT COMPLETED  1.142E-02,  FRACTION OF STEP COMPLETED  3.942E-04
 STEP TIME COMPLETED       0.236    ,  TOTAL TIME COMPLETED        0.236    
  
     ASYNCHRONOUS OUTPUT DATABASE FRAME FLUSH STARTED
  


  INCREMENT    35 STARTS. ATTEMPT NUMBER  1, TIME INCREMENT  1.142E-02

  NUMBER OF EQUATIONS =      7794     NUMBER OF RHS =    1
  NUMBER OF FLOATING PT. OPERATIONS =  2.40E+07

  USING THE DIRECT SOLVER WITH  12 PROCESSORS

     CHECK POINT   START OF SOLVER    

     CHECK POINT  END OF SOLVER       

       ELAPSED USER TIME (SEC)      =  0.10000    
       ELAPSED SYSTEM TIME (SEC)    =  0.10000    
       ELAPSED TOTAL CPU TIME (SEC) =  0.20000    
       ELAPSED WALLCLOCK TIME (SEC) =          0

               CONVERGENCE CHECKS FOR EQUILIBRIUM ITERATION     1


 AVERAGE MASS FLUX                  4.803E-05   TIME AVG. MASS FLUX   4.841E-05
 LARGEST RESIDUAL MASS FLUX        -5.312E-14   AT NODE     459105   DOF 11
 LARGEST INCREMENT OF CONCENT.      0.179       AT NODE        640   DOF 11
 LARGEST CORRECTION TO CONCENT.    -7.155E-03   AT NODE        640   DOF 11
          THE MASS FLUX EQUILIBRIUM RESPONSE WAS LINEAR IN THIS INCREMENT

 MAXIMUM NON-PRESCRIBED INCREMENT IN NORMALIZED CONCENTRATION IS   0.179    

 ITERATION SUMMARY FOR THE INCREMENT:   1 TOTAL ITERATIONS, OF WHICH
   0 ARE SEVERE DISCONTINUITY ITERATIONS AND  1 ARE EQUILIBRIUM ITERATIONS.

 TIME INCREMENT COMPLETED  1.142E-02,  FRACTION OF STEP COMPLETED  4.132E-04
 STEP TIME COMPLETED       0.248    ,  TOTAL TIME COMPLETED        0.248    
  
     ASYNCHRONOUS OUTPUT DATABASE FRAME FLUSH STARTED
  


  INCREMENT    36 STARTS. ATTEMPT NUMBER  1, TIME INCREMENT  1.142E-02

  NUMBER OF EQUATIONS =      7794     NUMBER OF RHS =    1
  NUMBER OF FLOATING PT. OPERATIONS =  2.40E+07

  USING THE DIRECT SOLVER WITH  12 PROCESSORS

     CHECK POINT   START OF SOLVER    

     CHECK POINT  END OF SOLVER       

       ELAPSED USER TIME (SEC)      =  0.10000    
       ELAPSED SYSTEM TIME (SEC)    =   0.0000    
       ELAPSED TOTAL CPU TIME (SEC) =  0.10000    
       ELAPSED WALLCLOCK TIME (SEC) =          1

               CONVERGENCE CHECKS FOR EQUILIBRIUM ITERATION     1


 AVERAGE MASS FLUX                  4.800E-05   TIME AVG. MASS FLUX   4.840E-05
 LARGEST RESIDUAL MASS FLUX        -5.446E-14   AT NODE    1508865   DOF 11
 LARGEST INCREMENT OF CONCENT.      0.172       AT NODE        640   DOF 11
 LARGEST CORRECTION TO CONCENT.    -6.721E-03   AT NODE        640   DOF 11
          THE MASS FLUX EQUILIBRIUM RESPONSE WAS LINEAR IN THIS INCREMENT

 MAXIMUM NON-PRESCRIBED INCREMENT IN NORMALIZED CONCENTRATION IS   0.172    

 ITERATION SUMMARY FOR THE INCREMENT:   1 TOTAL ITERATIONS, OF WHICH
   0 ARE SEVERE DISCONTINUITY ITERATIONS AND  1 ARE EQUILIBRIUM ITERATIONS.

 TIME INCREMENT COMPLETED  1.142E-02,  FRACTION OF STEP COMPLETED  4.322E-04
 STEP TIME COMPLETED       0.259    ,  TOTAL TIME COMPLETED        0.259    
  
     ASYNCHRONOUS OUTPUT DATABASE FRAME FLUSH STARTED
  


  INCREMENT    37 STARTS. ATTEMPT NUMBER  1, TIME INCREMENT  1.142E-02

  NUMBER OF EQUATIONS =      7794     NUMBER OF RHS =    1
  NUMBER OF FLOATING PT. OPERATIONS =  2.40E+07

  USING THE DIRECT SOLVER WITH  12 PROCESSORS

     CHECK POINT   START OF SOLVER    

     CHECK POINT  END OF SOLVER       

       ELAPSED USER TIME (SEC)      =  0.10000    
       ELAPSED SYSTEM TIME (SEC)    =  0.10000    
       ELAPSED TOTAL CPU TIME (SEC) =  0.20000    
       ELAPSED WALLCLOCK TIME (SEC) =          0

               CONVERGENCE CHECKS FOR EQUILIBRIUM ITERATION     1


 AVERAGE MASS FLUX                  4.798E-05   TIME AVG. MASS FLUX   4.839E-05
 LARGEST RESIDUAL MASS FLUX        -5.384E-14   AT NODE     131969   DOF 11
 LARGEST INCREMENT OF CONCENT.      0.166       AT NODE        640   DOF 11
 LARGEST CORRECTION TO CONCENT.    -6.320E-03   AT NODE        640   DOF 11
          THE MASS FLUX EQUILIBRIUM RESPONSE WAS LINEAR IN THIS INCREMENT

 MAXIMUM NON-PRESCRIBED INCREMENT IN NORMALIZED CONCENTRATION IS   0.166    

 ITERATION SUMMARY FOR THE INCREMENT:   1 TOTAL ITERATIONS, OF WHICH
   0 ARE SEVERE DISCONTINUITY ITERATIONS AND  1 ARE EQUILIBRIUM ITERATIONS.

 TIME INCREMENT COMPLETED  1.142E-02,  FRACTION OF STEP COMPLETED  4.512E-04
 STEP TIME COMPLETED       0.271    ,  TOTAL TIME COMPLETED        0.271    
  
     ASYNCHRONOUS OUTPUT DATABASE FRAME FLUSH STARTED
  


  INCREMENT    38 STARTS. ATTEMPT NUMBER  1, TIME INCREMENT  1.142E-02

  NUMBER OF EQUATIONS =      7794     NUMBER OF RHS =    1
  NUMBER OF FLOATING PT. OPERATIONS =  2.40E+07

  USING THE DIRECT SOLVER WITH  12 PROCESSORS

     CHECK POINT   START OF SOLVER    

     CHECK POINT  END OF SOLVER       

       ELAPSED USER TIME (SEC)      =  0.30000    
       ELAPSED SYSTEM TIME (SEC)    =   0.0000    
       ELAPSED TOTAL CPU TIME (SEC) =  0.30000    
       ELAPSED WALLCLOCK TIME (SEC) =          1

               CONVERGENCE CHECKS FOR EQUILIBRIUM ITERATION     1


 AVERAGE MASS FLUX                  4.795E-05   TIME AVG. MASS FLUX   4.837E-05
 LARGEST RESIDUAL MASS FLUX         5.400E-14   AT NODE     852001   DOF 11
 LARGEST INCREMENT OF CONCENT.      0.160       AT NODE        640   DOF 11
 LARGEST CORRECTION TO CONCENT.    -5.948E-03   AT NODE        640   DOF 11
          THE MASS FLUX EQUILIBRIUM RESPONSE WAS LINEAR IN THIS INCREMENT

 MAXIMUM NON-PRESCRIBED INCREMENT IN NORMALIZED CONCENTRATION IS   0.160    

 ITERATION SUMMARY FOR THE INCREMENT:   1 TOTAL ITERATIONS, OF WHICH
   0 ARE SEVERE DISCONTINUITY ITERATIONS AND  1 ARE EQUILIBRIUM ITERATIONS.

 TIME INCREMENT COMPLETED  1.142E-02,  FRACTION OF STEP COMPLETED  4.703E-04
 STEP TIME COMPLETED       0.282    ,  TOTAL TIME COMPLETED        0.282    
  
     ASYNCHRONOUS OUTPUT DATABASE FRAME FLUSH STARTED
  


  INCREMENT    39 STARTS. ATTEMPT NUMBER  1, TIME INCREMENT  1.142E-02

  NUMBER OF EQUATIONS =      7794     NUMBER OF RHS =    1
  NUMBER OF FLOATING PT. OPERATIONS =  2.40E+07

  USING THE DIRECT SOLVER WITH  12 PROCESSORS

     CHECK POINT   START OF SOLVER    

     CHECK POINT  END OF SOLVER       

       ELAPSED USER TIME (SEC)      =  0.10000    
       ELAPSED SYSTEM TIME (SEC)    =  0.10000    
       ELAPSED TOTAL CPU TIME (SEC) =  0.20000    
       ELAPSED WALLCLOCK TIME (SEC) =          0

               CONVERGENCE CHECKS FOR EQUILIBRIUM ITERATION     1


 AVERAGE MASS FLUX                  4.793E-05   TIME AVG. MASS FLUX   4.836E-05
 LARGEST RESIDUAL MASS FLUX         5.394E-14   AT NODE     983265   DOF 11
 LARGEST INCREMENT OF CONCENT.      0.154       AT NODE        640   DOF 11
 LARGEST CORRECTION TO CONCENT.    -5.604E-03   AT NODE        640   DOF 11
          THE MASS FLUX EQUILIBRIUM RESPONSE WAS LINEAR IN THIS INCREMENT

 MAXIMUM NON-PRESCRIBED INCREMENT IN NORMALIZED CONCENTRATION IS   0.154    

 ITERATION SUMMARY FOR THE INCREMENT:   1 TOTAL ITERATIONS, OF WHICH
   0 ARE SEVERE DISCONTINUITY ITERATIONS AND  1 ARE EQUILIBRIUM ITERATIONS.

 TIME INCREMENT COMPLETED  1.142E-02,  FRACTION OF STEP COMPLETED  4.893E-04
 STEP TIME COMPLETED       0.294    ,  TOTAL TIME COMPLETED        0.294    
  
     ASYNCHRONOUS OUTPUT DATABASE FRAME FLUSH STARTED
  


  INCREMENT    40 STARTS. ATTEMPT NUMBER  1, TIME INCREMENT  1.142E-02

  NUMBER OF EQUATIONS =      7794     NUMBER OF RHS =    1
  NUMBER OF FLOATING PT. OPERATIONS =  2.40E+07

  USING THE DIRECT SOLVER WITH  12 PROCESSORS

     CHECK POINT   START OF SOLVER    

     CHECK POINT  END OF SOLVER       

       ELAPSED USER TIME (SEC)      =  0.20000    
       ELAPSED SYSTEM TIME (SEC)    =  0.10000    
       ELAPSED TOTAL CPU TIME (SEC) =  0.30000    
       ELAPSED WALLCLOCK TIME (SEC) =          1

               CONVERGENCE CHECKS FOR EQUILIBRIUM ITERATION     1


 AVERAGE MASS FLUX                  4.791E-05   TIME AVG. MASS FLUX   4.835E-05
 LARGEST RESIDUAL MASS FLUX         5.352E-14   AT NODE    1639361   DOF 11
 LARGEST INCREMENT OF CONCENT.      0.149       AT NODE        640   DOF 11
 LARGEST CORRECTION TO CONCENT.    -5.284E-03   AT NODE        640   DOF 11
          THE MASS FLUX EQUILIBRIUM RESPONSE WAS LINEAR IN THIS INCREMENT

 MAXIMUM NON-PRESCRIBED INCREMENT IN NORMALIZED CONCENTRATION IS   0.149    

 ITERATION SUMMARY FOR THE INCREMENT:   1 TOTAL ITERATIONS, OF WHICH
   0 ARE SEVERE DISCONTINUITY ITERATIONS AND  1 ARE EQUILIBRIUM ITERATIONS.

 TIME INCREMENT COMPLETED  1.142E-02,  FRACTION OF STEP COMPLETED  5.083E-04
 STEP TIME COMPLETED       0.305    ,  TOTAL TIME COMPLETED        0.305    
  
     ASYNCHRONOUS OUTPUT DATABASE FRAME FLUSH STARTED
  


  INCREMENT    41 STARTS. ATTEMPT NUMBER  1, TIME INCREMENT  1.142E-02

  NUMBER OF EQUATIONS =      7794     NUMBER OF RHS =    1
  NUMBER OF FLOATING PT. OPERATIONS =  2.40E+07

  USING THE DIRECT SOLVER WITH  12 PROCESSORS

     CHECK POINT   START OF SOLVER    

     CHECK POINT  END OF SOLVER       

       ELAPSED USER TIME (SEC)      =  0.30000    
       ELAPSED SYSTEM TIME (SEC)    =  0.10000    
       ELAPSED TOTAL CPU TIME (SEC) =  0.40000    
       ELAPSED WALLCLOCK TIME (SEC) =          0

               CONVERGENCE CHECKS FOR EQUILIBRIUM ITERATION     1


 AVERAGE MASS FLUX                  4.789E-05   TIME AVG. MASS FLUX   4.834E-05
 LARGEST RESIDUAL MASS FLUX        -5.450E-14   AT NODE    1442465   DOF 11
 LARGEST INCREMENT OF CONCENT.      0.144       AT NODE        640   DOF 11
 LARGEST CORRECTION TO CONCENT.    -4.988E-03   AT NODE        640   DOF 11
          THE MASS FLUX EQUILIBRIUM RESPONSE WAS LINEAR IN THIS INCREMENT

 MAXIMUM NON-PRESCRIBED INCREMENT IN NORMALIZED CONCENTRATION IS   0.144    

 ITERATION SUMMARY FOR THE INCREMENT:   1 TOTAL ITERATIONS, OF WHICH
   0 ARE SEVERE DISCONTINUITY ITERATIONS AND  1 ARE EQUILIBRIUM ITERATIONS.

 TIME INCREMENT COMPLETED  1.142E-02,  FRACTION OF STEP COMPLETED  5.274E-04
 STEP TIME COMPLETED       0.316    ,  TOTAL TIME COMPLETED        0.316    
  
     ASYNCHRONOUS OUTPUT DATABASE FRAME FLUSH STARTED
  


  INCREMENT    42 STARTS. ATTEMPT NUMBER  1, TIME INCREMENT  1.142E-02

  NUMBER OF EQUATIONS =      7794     NUMBER OF RHS =    1
  NUMBER OF FLOATING PT. OPERATIONS =  2.40E+07

  USING THE DIRECT SOLVER WITH  12 PROCESSORS

     CHECK POINT   START OF SOLVER    

     CHECK POINT  END OF SOLVER       

       ELAPSED USER TIME (SEC)      =  0.20000    
       ELAPSED SYSTEM TIME (SEC)    =   0.0000    
       ELAPSED TOTAL CPU TIME (SEC) =  0.20000    
       ELAPSED WALLCLOCK TIME (SEC) =          1

               CONVERGENCE CHECKS FOR EQUILIBRIUM ITERATION     1


 AVERAGE MASS FLUX                  4.787E-05   TIME AVG. MASS FLUX   4.833E-05
 LARGEST RESIDUAL MASS FLUX        -5.370E-14   AT NODE    1835137   DOF 11
 LARGEST INCREMENT OF CONCENT.      0.139       AT NODE        640   DOF 11
 LARGEST CORRECTION TO CONCENT.    -4.712E-03   AT NODE        640   DOF 11
          THE MASS FLUX EQUILIBRIUM RESPONSE WAS LINEAR IN THIS INCREMENT

 MAXIMUM NON-PRESCRIBED INCREMENT IN NORMALIZED CONCENTRATION IS   0.139    

 ITERATION SUMMARY FOR THE INCREMENT:   1 TOTAL ITERATIONS, OF WHICH
   0 ARE SEVERE DISCONTINUITY ITERATIONS AND  1 ARE EQUILIBRIUM ITERATIONS.

 TIME INCREMENT COMPLETED  1.142E-02,  FRACTION OF STEP COMPLETED  5.464E-04
 STEP TIME COMPLETED       0.328    ,  TOTAL TIME COMPLETED        0.328    
  
     ASYNCHRONOUS OUTPUT DATABASE FRAME FLUSH STARTED
  


  INCREMENT    43 STARTS. ATTEMPT NUMBER  1, TIME INCREMENT  1.142E-02

  NUMBER OF EQUATIONS =      7794     NUMBER OF RHS =    1
  NUMBER OF FLOATING PT. OPERATIONS =  2.40E+07

  USING THE DIRECT SOLVER WITH  12 PROCESSORS

     CHECK POINT   START OF SOLVER    

     CHECK POINT  END OF SOLVER       

       ELAPSED USER TIME (SEC)      =  0.10000    
       ELAPSED SYSTEM TIME (SEC)    =  0.10000    
       ELAPSED TOTAL CPU TIME (SEC) =  0.20000    
       ELAPSED WALLCLOCK TIME (SEC) =          0

               CONVERGENCE CHECKS FOR EQUILIBRIUM ITERATION     1


 AVERAGE MASS FLUX                  4.785E-05   TIME AVG. MASS FLUX   4.832E-05
 LARGEST RESIDUAL MASS FLUX        -5.281E-14   AT NODE    1508417   DOF 11
 LARGEST INCREMENT OF CONCENT.      0.135       AT NODE        640   DOF 11
 LARGEST CORRECTION TO CONCENT.    -4.456E-03   AT NODE        640   DOF 11
          THE MASS FLUX EQUILIBRIUM RESPONSE WAS LINEAR IN THIS INCREMENT

 MAXIMUM NON-PRESCRIBED INCREMENT IN NORMALIZED CONCENTRATION IS   0.135    

 ITERATION SUMMARY FOR THE INCREMENT:   1 TOTAL ITERATIONS, OF WHICH
   0 ARE SEVERE DISCONTINUITY ITERATIONS AND  1 ARE EQUILIBRIUM ITERATIONS.

 TIME INCREMENT COMPLETED  1.142E-02,  FRACTION OF STEP COMPLETED  5.654E-04
 STEP TIME COMPLETED       0.339    ,  TOTAL TIME COMPLETED        0.339    
  
     ASYNCHRONOUS OUTPUT DATABASE FRAME FLUSH STARTED
  


  INCREMENT    44 STARTS. ATTEMPT NUMBER  1, TIME INCREMENT  1.142E-02

  NUMBER OF EQUATIONS =      7794     NUMBER OF RHS =    1
  NUMBER OF FLOATING PT. OPERATIONS =  2.40E+07

  USING THE DIRECT SOLVER WITH  12 PROCESSORS

     CHECK POINT   START OF SOLVER    

     CHECK POINT  END OF SOLVER       

       ELAPSED USER TIME (SEC)      =  0.20000    
       ELAPSED SYSTEM TIME (SEC)    =  0.10000    
       ELAPSED TOTAL CPU TIME (SEC) =  0.30000    
       ELAPSED WALLCLOCK TIME (SEC) =          1

               CONVERGENCE CHECKS FOR EQUILIBRIUM ITERATION     1


 AVERAGE MASS FLUX                  4.783E-05   TIME AVG. MASS FLUX   4.831E-05
 LARGEST RESIDUAL MASS FLUX         5.325E-14   AT NODE     524833   DOF 11
 LARGEST INCREMENT OF CONCENT.      0.130       AT NODE        640   DOF 11
 LARGEST CORRECTION TO CONCENT.    -4.218E-03   AT NODE        640   DOF 11
          THE MASS FLUX EQUILIBRIUM RESPONSE WAS LINEAR IN THIS INCREMENT

 MAXIMUM NON-PRESCRIBED INCREMENT IN NORMALIZED CONCENTRATION IS   0.130    

 ITERATION SUMMARY FOR THE INCREMENT:   1 TOTAL ITERATIONS, OF WHICH
   0 ARE SEVERE DISCONTINUITY ITERATIONS AND  1 ARE EQUILIBRIUM ITERATIONS.

 TIME INCREMENT COMPLETED  1.142E-02,  FRACTION OF STEP COMPLETED  5.844E-04
 STEP TIME COMPLETED       0.351    ,  TOTAL TIME COMPLETED        0.351    
  
     ASYNCHRONOUS OUTPUT DATABASE FRAME FLUSH STARTED
  


  INCREMENT    45 STARTS. ATTEMPT NUMBER  1, TIME INCREMENT  1.142E-02

  NUMBER OF EQUATIONS =      7794     NUMBER OF RHS =    1
  NUMBER OF FLOATING PT. OPERATIONS =  2.40E+07

  USING THE DIRECT SOLVER WITH  12 PROCESSORS

     CHECK POINT   START OF SOLVER    

     CHECK POINT  END OF SOLVER       

       ELAPSED USER TIME (SEC)      =  0.20000    
       ELAPSED SYSTEM TIME (SEC)    =  0.10000    
       ELAPSED TOTAL CPU TIME (SEC) =  0.30000    
       ELAPSED WALLCLOCK TIME (SEC) =          0

               CONVERGENCE CHECKS FOR EQUILIBRIUM ITERATION     1


 AVERAGE MASS FLUX                  4.781E-05   TIME AVG. MASS FLUX   4.830E-05
 LARGEST RESIDUAL MASS FLUX         5.369E-14   AT NODE     787041   DOF 11
 LARGEST INCREMENT OF CONCENT.      0.126       AT NODE        640   DOF 11
 LARGEST CORRECTION TO CONCENT.    -3.996E-03   AT NODE        640   DOF 11
          THE MASS FLUX EQUILIBRIUM RESPONSE WAS LINEAR IN THIS INCREMENT

 MAXIMUM NON-PRESCRIBED INCREMENT IN NORMALIZED CONCENTRATION IS   0.126    

 ITERATION SUMMARY FOR THE INCREMENT:   1 TOTAL ITERATIONS, OF WHICH
   0 ARE SEVERE DISCONTINUITY ITERATIONS AND  1 ARE EQUILIBRIUM ITERATIONS.

 TIME INCREMENT COMPLETED  1.142E-02,  FRACTION OF STEP COMPLETED  6.035E-04
 STEP TIME COMPLETED       0.362    ,  TOTAL TIME COMPLETED        0.362    
  
     ASYNCHRONOUS OUTPUT DATABASE FRAME FLUSH STARTED
  


  INCREMENT    46 STARTS. ATTEMPT NUMBER  1, TIME INCREMENT  1.142E-02

  NUMBER OF EQUATIONS =      7794     NUMBER OF RHS =    1
  NUMBER OF FLOATING PT. OPERATIONS =  2.40E+07

  USING THE DIRECT SOLVER WITH  12 PROCESSORS

     CHECK POINT   START OF SOLVER    

     CHECK POINT  END OF SOLVER       

       ELAPSED USER TIME (SEC)      =  0.40000    
       ELAPSED SYSTEM TIME (SEC)    =   0.0000    
       ELAPSED TOTAL CPU TIME (SEC) =  0.40000    
       ELAPSED WALLCLOCK TIME (SEC) =          1

               CONVERGENCE CHECKS FOR EQUILIBRIUM ITERATION     1


 AVERAGE MASS FLUX                  4.778E-05   TIME AVG. MASS FLUX   4.828E-05
 LARGEST RESIDUAL MASS FLUX        -5.442E-14   AT NODE     918817   DOF 11
 LARGEST INCREMENT OF CONCENT.      0.123       AT NODE        640   DOF 11
 LARGEST CORRECTION TO CONCENT.    -3.788E-03   AT NODE        640   DOF 11
          THE MASS FLUX EQUILIBRIUM RESPONSE WAS LINEAR IN THIS INCREMENT

 MAXIMUM NON-PRESCRIBED INCREMENT IN NORMALIZED CONCENTRATION IS   0.123    
          TIME INCREMENT MAY NOW INCREASE TO    2.236E-02

 ITERATION SUMMARY FOR THE INCREMENT:   1 TOTAL ITERATIONS, OF WHICH
   0 ARE SEVERE DISCONTINUITY ITERATIONS AND  1 ARE EQUILIBRIUM ITERATIONS.

 TIME INCREMENT COMPLETED  1.142E-02,  FRACTION OF STEP COMPLETED  6.225E-04
 STEP TIME COMPLETED       0.373    ,  TOTAL TIME COMPLETED        0.373    
  
     ASYNCHRONOUS OUTPUT DATABASE FRAME FLUSH STARTED
  


  INCREMENT    47 STARTS. ATTEMPT NUMBER  1, TIME INCREMENT  2.236E-02

  NUMBER OF EQUATIONS =      7794     NUMBER OF RHS =    1
  NUMBER OF FLOATING PT. OPERATIONS =  2.40E+07

  USING THE DIRECT SOLVER WITH  12 PROCESSORS

     CHECK POINT   START OF SOLVER    

     CHECK POINT  END OF SOLVER       

       ELAPSED USER TIME (SEC)      =  0.20000    
       ELAPSED SYSTEM TIME (SEC)    =  0.10000    
       ELAPSED TOTAL CPU TIME (SEC) =  0.30000    
       ELAPSED WALLCLOCK TIME (SEC) =          0

               CONVERGENCE CHECKS FOR EQUILIBRIUM ITERATION     1


 AVERAGE MASS FLUX                  4.773E-05   TIME AVG. MASS FLUX   4.827E-05
 LARGEST RESIDUAL MASS FLUX         2.761E-14   AT NODE    1507457   DOF 11
 LARGEST INCREMENT OF CONCENT.      0.227       AT NODE        640   DOF 11
 LARGEST CORRECTION TO CONCENT.    -1.317E-02   AT NODE        640   DOF 11
          THE MASS FLUX EQUILIBRIUM RESPONSE WAS LINEAR IN THIS INCREMENT

 MAXIMUM NON-PRESCRIBED INCREMENT IN NORMALIZED CONCENTRATION IS   0.227    

 ITERATION SUMMARY FOR THE INCREMENT:   1 TOTAL ITERATIONS, OF WHICH
   0 ARE SEVERE DISCONTINUITY ITERATIONS AND  1 ARE EQUILIBRIUM ITERATIONS.

 TIME INCREMENT COMPLETED  2.236E-02,  FRACTION OF STEP COMPLETED  6.598E-04
 STEP TIME COMPLETED       0.396    ,  TOTAL TIME COMPLETED        0.396    
  
     ASYNCHRONOUS OUTPUT DATABASE FRAME FLUSH STARTED
  


  INCREMENT    48 STARTS. ATTEMPT NUMBER  1, TIME INCREMENT  2.236E-02

  NUMBER OF EQUATIONS =      7794     NUMBER OF RHS =    1
  NUMBER OF FLOATING PT. OPERATIONS =  2.40E+07

  USING THE DIRECT SOLVER WITH  12 PROCESSORS

     CHECK POINT   START OF SOLVER    

     CHECK POINT  END OF SOLVER       

       ELAPSED USER TIME (SEC)      =  0.10000    
       ELAPSED SYSTEM TIME (SEC)    =   0.0000    
       ELAPSED TOTAL CPU TIME (SEC) =  0.10000    
       ELAPSED WALLCLOCK TIME (SEC) =          0

               CONVERGENCE CHECKS FOR EQUILIBRIUM ITERATION     1


 AVERAGE MASS FLUX                  4.769E-05   TIME AVG. MASS FLUX   4.826E-05
 LARGEST RESIDUAL MASS FLUX         2.753E-14   AT NODE     394081   DOF 11
 LARGEST INCREMENT OF CONCENT.      0.215       AT NODE        640   DOF 11
 LARGEST CORRECTION TO CONCENT.    -1.196E-02   AT NODE        640   DOF 11
          THE MASS FLUX EQUILIBRIUM RESPONSE WAS LINEAR IN THIS INCREMENT

 MAXIMUM NON-PRESCRIBED INCREMENT IN NORMALIZED CONCENTRATION IS   0.215    

 ITERATION SUMMARY FOR THE INCREMENT:   1 TOTAL ITERATIONS, OF WHICH
   0 ARE SEVERE DISCONTINUITY ITERATIONS AND  1 ARE EQUILIBRIUM ITERATIONS.

 TIME INCREMENT COMPLETED  2.236E-02,  FRACTION OF STEP COMPLETED  6.970E-04
 STEP TIME COMPLETED       0.418    ,  TOTAL TIME COMPLETED        0.418    
  
     ASYNCHRONOUS OUTPUT DATABASE FRAME FLUSH STARTED
  


  INCREMENT    49 STARTS. ATTEMPT NUMBER  1, TIME INCREMENT  2.236E-02

  NUMBER OF EQUATIONS =      7794     NUMBER OF RHS =    1
  NUMBER OF FLOATING PT. OPERATIONS =  2.40E+07

  USING THE DIRECT SOLVER WITH  12 PROCESSORS

     CHECK POINT   START OF SOLVER    

     CHECK POINT  END OF SOLVER       

       ELAPSED USER TIME (SEC)      =  0.20000    
       ELAPSED SYSTEM TIME (SEC)    =   0.0000    
       ELAPSED TOTAL CPU TIME (SEC) =  0.20000    
       ELAPSED WALLCLOCK TIME (SEC) =          0

               CONVERGENCE CHECKS FOR EQUILIBRIUM ITERATION     1


 AVERAGE MASS FLUX                  4.765E-05   TIME AVG. MASS FLUX   4.825E-05
 LARGEST RESIDUAL MASS FLUX        -2.697E-14   AT NODE    1574433   DOF 11
[...]
 LARGEST CORRECTION TO CONCENT.    -5.368E-04   AT NODE        612   DOF 11
          THE MASS FLUX EQUILIBRIUM RESPONSE WAS LINEAR IN THIS INCREMENT

 MAXIMUM NON-PRESCRIBED INCREMENT IN NORMALIZED CONCENTRATION IS   1.715E-02

 ITERATION SUMMARY FOR THE INCREMENT:   1 TOTAL ITERATIONS, OF WHICH
   0 ARE SEVERE DISCONTINUITY ITERATIONS AND  1 ARE EQUILIBRIUM ITERATIONS.

 TIME INCREMENT COMPLETED   10.0    ,  FRACTION OF STEP COMPLETED  0.794    
 STEP TIME COMPLETED        476.    ,  TOTAL TIME COMPLETED         476.    
  
     ASYNCHRONOUS OUTPUT DATABASE FRAME FLUSH STARTED
  


  INCREMENT   194 STARTS. ATTEMPT NUMBER  1, TIME INCREMENT   10.0    

  NUMBER OF EQUATIONS =      7794     NUMBER OF RHS =    1
  NUMBER OF FLOATING PT. OPERATIONS =  2.40E+07

  USING THE DIRECT SOLVER WITH  12 PROCESSORS

     CHECK POINT   START OF SOLVER    

     CHECK POINT  END OF SOLVER       

       ELAPSED USER TIME (SEC)      =  0.30000    
       ELAPSED SYSTEM TIME (SEC)    =  0.10000    
       ELAPSED TOTAL CPU TIME (SEC) =  0.40000    
       ELAPSED WALLCLOCK TIME (SEC) =          0

               CONVERGENCE CHECKS FOR EQUILIBRIUM ITERATION     1


 AVERAGE MASS FLUX                  3.135E-05   TIME AVG. MASS FLUX   4.252E-05
 LARGEST RESIDUAL MASS FLUX        -6.940E-17   AT NODE    1836097   DOF 11
 LARGEST INCREMENT OF CONCENT.      1.666E-02   AT NODE        602   DOF 11
 LARGEST CORRECTION TO CONCENT.    -5.102E-04   AT NODE        612   DOF 11
          THE MASS FLUX EQUILIBRIUM RESPONSE WAS LINEAR IN THIS INCREMENT

 MAXIMUM NON-PRESCRIBED INCREMENT IN NORMALIZED CONCENTRATION IS   1.666E-02

 ITERATION SUMMARY FOR THE INCREMENT:   1 TOTAL ITERATIONS, OF WHICH
   0 ARE SEVERE DISCONTINUITY ITERATIONS AND  1 ARE EQUILIBRIUM ITERATIONS.

 TIME INCREMENT COMPLETED   10.0    ,  FRACTION OF STEP COMPLETED  0.810    
 STEP TIME COMPLETED        486.    ,  TOTAL TIME COMPLETED         486.    
  
     ASYNCHRONOUS OUTPUT DATABASE FRAME FLUSH STARTED
  


  INCREMENT   195 STARTS. ATTEMPT NUMBER  1, TIME INCREMENT   10.0    

  NUMBER OF EQUATIONS =      7794     NUMBER OF RHS =    1
  NUMBER OF FLOATING PT. OPERATIONS =  2.40E+07

  USING THE DIRECT SOLVER WITH  12 PROCESSORS

     CHECK POINT   START OF SOLVER    

     CHECK POINT  END OF SOLVER       

       ELAPSED USER TIME (SEC)      =  0.80000    
       ELAPSED SYSTEM TIME (SEC)    =   0.0000    
       ELAPSED TOTAL CPU TIME (SEC) =  0.80000    
       ELAPSED WALLCLOCK TIME (SEC) =          0

               CONVERGENCE CHECKS FOR EQUILIBRIUM ITERATION     1


 AVERAGE MASS FLUX                  3.132E-05   TIME AVG. MASS FLUX   4.246E-05
 LARGEST RESIDUAL MASS FLUX         6.705E-17   AT NODE    1574113   DOF 11
 LARGEST INCREMENT OF CONCENT.      1.619E-02   AT NODE        602   DOF 11
 LARGEST CORRECTION TO CONCENT.    -4.853E-04   AT NODE        612   DOF 11
          THE MASS FLUX EQUILIBRIUM RESPONSE WAS LINEAR IN THIS INCREMENT

 MAXIMUM NON-PRESCRIBED INCREMENT IN NORMALIZED CONCENTRATION IS   1.619E-02

 ITERATION SUMMARY FOR THE INCREMENT:   1 TOTAL ITERATIONS, OF WHICH
   0 ARE SEVERE DISCONTINUITY ITERATIONS AND  1 ARE EQUILIBRIUM ITERATIONS.

 TIME INCREMENT COMPLETED   10.0    ,  FRACTION OF STEP COMPLETED  0.827    
 STEP TIME COMPLETED        496.    ,  TOTAL TIME COMPLETED         496.    
  
     ASYNCHRONOUS OUTPUT DATABASE FRAME FLUSH STARTED
  


  INCREMENT   196 STARTS. ATTEMPT NUMBER  1, TIME INCREMENT   10.0    

  NUMBER OF EQUATIONS =      7794     NUMBER OF RHS =    1
  NUMBER OF FLOATING PT. OPERATIONS =  2.40E+07

  USING THE DIRECT SOLVER WITH  12 PROCESSORS

     CHECK POINT   START OF SOLVER    

     CHECK POINT  END OF SOLVER       

       ELAPSED USER TIME (SEC)      =  0.30000    
       ELAPSED SYSTEM TIME (SEC)    =  0.10000    
       ELAPSED TOTAL CPU TIME (SEC) =  0.40000    
       ELAPSED WALLCLOCK TIME (SEC) =          0

               CONVERGENCE CHECKS FOR EQUILIBRIUM ITERATION     1


 AVERAGE MASS FLUX                  3.130E-05   TIME AVG. MASS FLUX   4.241E-05
 LARGEST RESIDUAL MASS FLUX         6.914E-17   AT NODE     918753   DOF 11
 LARGEST INCREMENT OF CONCENT.      1.574E-02   AT NODE        601   DOF 11
 LARGEST CORRECTION TO CONCENT.    -4.621E-04   AT NODE        611   DOF 11
          THE MASS FLUX EQUILIBRIUM RESPONSE WAS LINEAR IN THIS INCREMENT

 MAXIMUM NON-PRESCRIBED INCREMENT IN NORMALIZED CONCENTRATION IS   1.574E-02

 ITERATION SUMMARY FOR THE INCREMENT:   1 TOTAL ITERATIONS, OF WHICH
   0 ARE SEVERE DISCONTINUITY ITERATIONS AND  1 ARE EQUILIBRIUM ITERATIONS.

 TIME INCREMENT COMPLETED   10.0    ,  FRACTION OF STEP COMPLETED  0.844    
 STEP TIME COMPLETED        506.    ,  TOTAL TIME COMPLETED         506.    
  
     ASYNCHRONOUS OUTPUT DATABASE FRAME FLUSH STARTED
  


  INCREMENT   197 STARTS. ATTEMPT NUMBER  1, TIME INCREMENT   10.0    

  NUMBER OF EQUATIONS =      7794     NUMBER OF RHS =    1
  NUMBER OF FLOATING PT. OPERATIONS =  2.40E+07

  USING THE DIRECT SOLVER WITH  12 PROCESSORS

     CHECK POINT   START OF SOLVER    

     CHECK POINT  END OF SOLVER       

       ELAPSED USER TIME (SEC)      =  0.10000    
       ELAPSED SYSTEM TIME (SEC)    =   0.0000    
       ELAPSED TOTAL CPU TIME (SEC) =  0.10000    
       ELAPSED WALLCLOCK TIME (SEC) =          1

               CONVERGENCE CHECKS FOR EQUILIBRIUM ITERATION     1


 AVERAGE MASS FLUX                  3.127E-05   TIME AVG. MASS FLUX   4.235E-05
 LARGEST RESIDUAL MASS FLUX         6.929E-17   AT NODE     655937   DOF 11
 LARGEST INCREMENT OF CONCENT.      1.532E-02   AT NODE        601   DOF 11
 LARGEST CORRECTION TO CONCENT.    -4.405E-04   AT NODE        611   DOF 11
          THE MASS FLUX EQUILIBRIUM RESPONSE WAS LINEAR IN THIS INCREMENT

 MAXIMUM NON-PRESCRIBED INCREMENT IN NORMALIZED CONCENTRATION IS   1.532E-02

 ITERATION SUMMARY FOR THE INCREMENT:   1 TOTAL ITERATIONS, OF WHICH
   0 ARE SEVERE DISCONTINUITY ITERATIONS AND  1 ARE EQUILIBRIUM ITERATIONS.

 TIME INCREMENT COMPLETED   10.0    ,  FRACTION OF STEP COMPLETED  0.860    
 STEP TIME COMPLETED        516.    ,  TOTAL TIME COMPLETED         516.    
  
     ASYNCHRONOUS OUTPUT DATABASE FRAME FLUSH STARTED
  


  INCREMENT   198 STARTS. ATTEMPT NUMBER  1, TIME INCREMENT   10.0    

  NUMBER OF EQUATIONS =      7794     NUMBER OF RHS =    1
  NUMBER OF FLOATING PT. OPERATIONS =  2.40E+07

  USING THE DIRECT SOLVER WITH  12 PROCESSORS

     CHECK POINT   START OF SOLVER    

     CHECK POINT  END OF SOLVER       

       ELAPSED USER TIME (SEC)      =  0.20000    
       ELAPSED SYSTEM TIME (SEC)    =  0.10000    
       ELAPSED TOTAL CPU TIME (SEC) =  0.30000    
       ELAPSED WALLCLOCK TIME (SEC) =          0

               CONVERGENCE CHECKS FOR EQUILIBRIUM ITERATION     1


 AVERAGE MASS FLUX                  3.125E-05   TIME AVG. MASS FLUX   4.229E-05
 LARGEST RESIDUAL MASS FLUX         7.253E-17   AT NODE    1115361   DOF 11
 LARGEST INCREMENT OF CONCENT.      1.491E-02   AT NODE        600   DOF 11
 LARGEST CORRECTION TO CONCENT.    -4.202E-04   AT NODE        611   DOF 11
          THE MASS FLUX EQUILIBRIUM RESPONSE WAS LINEAR IN THIS INCREMENT

 MAXIMUM NON-PRESCRIBED INCREMENT IN NORMALIZED CONCENTRATION IS   1.491E-02

 ITERATION SUMMARY FOR THE INCREMENT:   1 TOTAL ITERATIONS, OF WHICH
   0 ARE SEVERE DISCONTINUITY ITERATIONS AND  1 ARE EQUILIBRIUM ITERATIONS.

 TIME INCREMENT COMPLETED   10.0    ,  FRACTION OF STEP COMPLETED  0.877    
 STEP TIME COMPLETED        526.    ,  TOTAL TIME COMPLETED         526.    
  
     ASYNCHRONOUS OUTPUT DATABASE FRAME FLUSH STARTED
  


  INCREMENT   199 STARTS. ATTEMPT NUMBER  1, TIME INCREMENT   10.0    

  NUMBER OF EQUATIONS =      7794     NUMBER OF RHS =    1
  NUMBER OF FLOATING PT. OPERATIONS =  2.40E+07

  USING THE DIRECT SOLVER WITH  12 PROCESSORS

     CHECK POINT   START OF SOLVER    

     CHECK POINT  END OF SOLVER       

       ELAPSED USER TIME (SEC)      =  0.10000    
       ELAPSED SYSTEM TIME (SEC)    =  0.10000    
       ELAPSED TOTAL CPU TIME (SEC) =  0.20000    
       ELAPSED WALLCLOCK TIME (SEC) =          0

               CONVERGENCE CHECKS FOR EQUILIBRIUM ITERATION     1


 AVERAGE MASS FLUX                  3.122E-05   TIME AVG. MASS FLUX   4.224E-05
 LARGEST RESIDUAL MASS FLUX        -6.715E-17   AT NODE     721089   DOF 11
 LARGEST INCREMENT OF CONCENT.      1.452E-02   AT NODE        600   DOF 11
 LARGEST CORRECTION TO CONCENT.    -4.013E-04   AT NODE        610   DOF 11
          THE MASS FLUX EQUILIBRIUM RESPONSE WAS LINEAR IN THIS INCREMENT

 MAXIMUM NON-PRESCRIBED INCREMENT IN NORMALIZED CONCENTRATION IS   1.452E-02

 ITERATION SUMMARY FOR THE INCREMENT:   1 TOTAL ITERATIONS, OF WHICH
   0 ARE SEVERE DISCONTINUITY ITERATIONS AND  1 ARE EQUILIBRIUM ITERATIONS.

 TIME INCREMENT COMPLETED   10.0    ,  FRACTION OF STEP COMPLETED  0.894    
 STEP TIME COMPLETED        536.    ,  TOTAL TIME COMPLETED         536.    
  
     ASYNCHRONOUS OUTPUT DATABASE FRAME FLUSH STARTED
  


  INCREMENT   200 STARTS. ATTEMPT NUMBER  1, TIME INCREMENT   10.0    

  NUMBER OF EQUATIONS =      7794     NUMBER OF RHS =    1
  NUMBER OF FLOATING PT. OPERATIONS =  2.40E+07

  USING THE DIRECT SOLVER WITH  12 PROCESSORS

     CHECK POINT   START OF SOLVER    

     CHECK POINT  END OF SOLVER       

       ELAPSED USER TIME (SEC)      =   0.0000    
       ELAPSED SYSTEM TIME (SEC)    =  0.10000    
       ELAPSED TOTAL CPU TIME (SEC) =  0.10000    
       ELAPSED WALLCLOCK TIME (SEC) =          0

               CONVERGENCE CHECKS FOR EQUILIBRIUM ITERATION     1


 AVERAGE MASS FLUX                  3.119E-05   TIME AVG. MASS FLUX   4.218E-05
 LARGEST RESIDUAL MASS FLUX        -6.810E-17   AT NODE    1901601   DOF 11
 LARGEST INCREMENT OF CONCENT.      1.415E-02   AT NODE        600   DOF 11
 LARGEST CORRECTION TO CONCENT.    -3.836E-04   AT NODE        610   DOF 11
          THE MASS FLUX EQUILIBRIUM RESPONSE WAS LINEAR IN THIS INCREMENT

 MAXIMUM NON-PRESCRIBED INCREMENT IN NORMALIZED CONCENTRATION IS   1.415E-02

 ITERATION SUMMARY FOR THE INCREMENT:   1 TOTAL ITERATIONS, OF WHICH
   0 ARE SEVERE DISCONTINUITY ITERATIONS AND  1 ARE EQUILIBRIUM ITERATIONS.

 TIME INCREMENT COMPLETED   10.0    ,  FRACTION OF STEP COMPLETED  0.910    
 STEP TIME COMPLETED        546.    ,  TOTAL TIME COMPLETED         546.    
  
     ASYNCHRONOUS OUTPUT DATABASE FRAME FLUSH STARTED
  


  INCREMENT   201 STARTS. ATTEMPT NUMBER  1, TIME INCREMENT   10.0    

  NUMBER OF EQUATIONS =      7794     NUMBER OF RHS =    1
  NUMBER OF FLOATING PT. OPERATIONS =  2.40E+07

  USING THE DIRECT SOLVER WITH  12 PROCESSORS

     CHECK POINT   START OF SOLVER    

     CHECK POINT  END OF SOLVER       

       ELAPSED USER TIME (SEC)      =  0.20000    
       ELAPSED SYSTEM TIME (SEC)    =  0.10000    
       ELAPSED TOTAL CPU TIME (SEC) =  0.30000    
       ELAPSED WALLCLOCK TIME (SEC) =          0

               CONVERGENCE CHECKS FOR EQUILIBRIUM ITERATION     1


 AVERAGE MASS FLUX                  3.117E-05   TIME AVG. MASS FLUX   4.213E-05
 LARGEST RESIDUAL MASS FLUX        -6.954E-17   AT NODE    1508897   DOF 11
 LARGEST INCREMENT OF CONCENT.      1.380E-02   AT NODE        599   DOF 11
 LARGEST CORRECTION TO CONCENT.    -3.669E-04   AT NODE        610   DOF 11
          THE MASS FLUX EQUILIBRIUM RESPONSE WAS LINEAR IN THIS INCREMENT

 MAXIMUM NON-PRESCRIBED INCREMENT IN NORMALIZED CONCENTRATION IS   1.380E-02

 ITERATION SUMMARY FOR THE INCREMENT:   1 TOTAL ITERATIONS, OF WHICH
   0 ARE SEVERE DISCONTINUITY ITERATIONS AND  1 ARE EQUILIBRIUM ITERATIONS.

 TIME INCREMENT COMPLETED   10.0    ,  FRACTION OF STEP COMPLETED  0.927    
 STEP TIME COMPLETED        556.    ,  TOTAL TIME COMPLETED         556.    
  
     ASYNCHRONOUS OUTPUT DATABASE FRAME FLUSH STARTED
  


  INCREMENT   202 STARTS. ATTEMPT NUMBER  1, TIME INCREMENT   10.0    

  NUMBER OF EQUATIONS =      7794     NUMBER OF RHS =    1
  NUMBER OF FLOATING PT. OPERATIONS =  2.40E+07

  USING THE DIRECT SOLVER WITH  12 PROCESSORS

     CHECK POINT   START OF SOLVER    

     CHECK POINT  END OF SOLVER       

       ELAPSED USER TIME (SEC)      =  0.10000    
       ELAPSED SYSTEM TIME (SEC)    =   0.0000    
       ELAPSED TOTAL CPU TIME (SEC) =  0.10000    
       ELAPSED WALLCLOCK TIME (SEC) =          0

               CONVERGENCE CHECKS FOR EQUILIBRIUM ITERATION     1


 AVERAGE MASS FLUX                  3.115E-05   TIME AVG. MASS FLUX   4.207E-05
 LARGEST RESIDUAL MASS FLUX         6.906E-17   AT NODE     852449   DOF 11
 LARGEST INCREMENT OF CONCENT.      1.346E-02   AT NODE        599   DOF 11
 LARGEST CORRECTION TO CONCENT.    -3.512E-04   AT NODE        609   DOF 11
          THE MASS FLUX EQUILIBRIUM RESPONSE WAS LINEAR IN THIS INCREMENT

 MAXIMUM NON-PRESCRIBED INCREMENT IN NORMALIZED CONCENTRATION IS   1.346E-02

 ITERATION SUMMARY FOR THE INCREMENT:   1 TOTAL ITERATIONS, OF WHICH
   0 ARE SEVERE DISCONTINUITY ITERATIONS AND  1 ARE EQUILIBRIUM ITERATIONS.

 TIME INCREMENT COMPLETED   10.0    ,  FRACTION OF STEP COMPLETED  0.944    
 STEP TIME COMPLETED        566.    ,  TOTAL TIME COMPLETED         566.    
  
     ASYNCHRONOUS OUTPUT DATABASE FRAME FLUSH STARTED
  


  INCREMENT   203 STARTS. ATTEMPT NUMBER  1, TIME INCREMENT   10.0    

  NUMBER OF EQUATIONS =      7794     NUMBER OF RHS =    1
  NUMBER OF FLOATING PT. OPERATIONS =  2.40E+07

  USING THE DIRECT SOLVER WITH  12 PROCESSORS

     CHECK POINT   START OF SOLVER    

     CHECK POINT  END OF SOLVER       

       ELAPSED USER TIME (SEC)      =  0.40000    
       ELAPSED SYSTEM TIME (SEC)    =   0.0000    
       ELAPSED TOTAL CPU TIME (SEC) =  0.40000    
       ELAPSED WALLCLOCK TIME (SEC) =          0

               CONVERGENCE CHECKS FOR EQUILIBRIUM ITERATION     1


 AVERAGE MASS FLUX                  3.112E-05   TIME AVG. MASS FLUX   4.202E-05
 LARGEST RESIDUAL MASS FLUX        -7.083E-17   AT NODE     263457   DOF 11
 LARGEST INCREMENT OF CONCENT.      1.313E-02   AT NODE        598   DOF 11
 LARGEST CORRECTION TO CONCENT.    -3.365E-04   AT NODE        609   DOF 11
          THE MASS FLUX EQUILIBRIUM RESPONSE WAS LINEAR IN THIS INCREMENT

 MAXIMUM NON-PRESCRIBED INCREMENT IN NORMALIZED CONCENTRATION IS   1.313E-02

 ITERATION SUMMARY FOR THE INCREMENT:   1 TOTAL ITERATIONS, OF WHICH
   0 ARE SEVERE DISCONTINUITY ITERATIONS AND  1 ARE EQUILIBRIUM ITERATIONS.

 TIME INCREMENT COMPLETED   10.0    ,  FRACTION OF STEP COMPLETED  0.960    
 STEP TIME COMPLETED        576.    ,  TOTAL TIME COMPLETED         576.    
  
     ASYNCHRONOUS OUTPUT DATABASE FRAME FLUSH STARTED
  


  INCREMENT   204 STARTS. ATTEMPT NUMBER  1, TIME INCREMENT   10.0    

  NUMBER OF EQUATIONS =      7794     NUMBER OF RHS =    1
  NUMBER OF FLOATING PT. OPERATIONS =  2.40E+07

  USING THE DIRECT SOLVER WITH  12 PROCESSORS

     CHECK POINT   START OF SOLVER    

     CHECK POINT  END OF SOLVER       

       ELAPSED USER TIME (SEC)      =  0.20000    
       ELAPSED SYSTEM TIME (SEC)    =   0.0000    
       ELAPSED TOTAL CPU TIME (SEC) =  0.20000    
       ELAPSED WALLCLOCK TIME (SEC) =          0

               CONVERGENCE CHECKS FOR EQUILIBRIUM ITERATION     1


 AVERAGE MASS FLUX                  3.110E-05   TIME AVG. MASS FLUX   4.197E-05
 LARGEST RESIDUAL MASS FLUX         7.064E-17   AT NODE    1246305   DOF 11
 LARGEST INCREMENT OF CONCENT.      1.282E-02   AT NODE        598   DOF 11
 LARGEST CORRECTION TO CONCENT.    -3.227E-04   AT NODE        609   DOF 11
          THE MASS FLUX EQUILIBRIUM RESPONSE WAS LINEAR IN THIS INCREMENT

 MAXIMUM NON-PRESCRIBED INCREMENT IN NORMALIZED CONCENTRATION IS   1.282E-02

 ITERATION SUMMARY FOR THE INCREMENT:   1 TOTAL ITERATIONS, OF WHICH
   0 ARE SEVERE DISCONTINUITY ITERATIONS AND  1 ARE EQUILIBRIUM ITERATIONS.

 TIME INCREMENT COMPLETED   10.0    ,  FRACTION OF STEP COMPLETED  0.977    
 STEP TIME COMPLETED        586.    ,  TOTAL TIME COMPLETED         586.    
  
     ASYNCHRONOUS OUTPUT DATABASE FRAME FLUSH STARTED
  


  INCREMENT   205 STARTS. ATTEMPT NUMBER  1, TIME INCREMENT   10.0    

  NUMBER OF EQUATIONS =      7794     NUMBER OF RHS =    1
  NUMBER OF FLOATING PT. OPERATIONS =  2.40E+07

  USING THE DIRECT SOLVER WITH  12 PROCESSORS

     CHECK POINT   START OF SOLVER    

     CHECK POINT  END OF SOLVER       

       ELAPSED USER TIME (SEC)      =  0.20000    
       ELAPSED SYSTEM TIME (SEC)    =  0.10000    
       ELAPSED TOTAL CPU TIME (SEC) =  0.30000    
       ELAPSED WALLCLOCK TIME (SEC) =          0

               CONVERGENCE CHECKS FOR EQUILIBRIUM ITERATION     1


 AVERAGE MASS FLUX                  3.108E-05   TIME AVG. MASS FLUX   4.191E-05
 LARGEST RESIDUAL MASS FLUX        -6.863E-17   AT NODE     918465   DOF 11
 LARGEST INCREMENT OF CONCENT.      1.252E-02   AT NODE        598   DOF 11
 LARGEST CORRECTION TO CONCENT.    -3.096E-04   AT NODE        608   DOF 11
          THE MASS FLUX EQUILIBRIUM RESPONSE WAS LINEAR IN THIS INCREMENT

 MAXIMUM NON-PRESCRIBED INCREMENT IN NORMALIZED CONCENTRATION IS   1.252E-02

 ITERATION SUMMARY FOR THE INCREMENT:   1 TOTAL ITERATIONS, OF WHICH
   0 ARE SEVERE DISCONTINUITY ITERATIONS AND  1 ARE EQUILIBRIUM ITERATIONS.

 TIME INCREMENT COMPLETED   10.0    ,  FRACTION OF STEP COMPLETED  0.994    
 STEP TIME COMPLETED        596.    ,  TOTAL TIME COMPLETED         596.    
  
     ASYNCHRONOUS OUTPUT DATABASE FRAME FLUSH STARTED
  


  INCREMENT   206 STARTS. ATTEMPT NUMBER  1, TIME INCREMENT   3.73    

  NUMBER OF EQUATIONS =      7794     NUMBER OF RHS =    1
  NUMBER OF FLOATING PT. OPERATIONS =  2.40E+07

  USING THE DIRECT SOLVER WITH  12 PROCESSORS

     CHECK POINT   START OF SOLVER    

     CHECK POINT  END OF SOLVER       

       ELAPSED USER TIME (SEC)      =  0.10000    
       ELAPSED SYSTEM TIME (SEC)    =   0.0000    
       ELAPSED TOTAL CPU TIME (SEC) =  0.10000    
       ELAPSED WALLCLOCK TIME (SEC) =          1

               CONVERGENCE CHECKS FOR EQUILIBRIUM ITERATION     1


 AVERAGE MASS FLUX                  3.107E-05   TIME AVG. MASS FLUX   4.186E-05
 LARGEST RESIDUAL MASS FLUX         1.755E-16   AT NODE    1703969   DOF 11
 LARGEST INCREMENT OF CONCENT.      4.625E-03   AT NODE        597   DOF 11
 LARGEST CORRECTION TO CONCENT.    -4.231E-05   AT NODE        608   DOF 11
          THE MASS FLUX EQUILIBRIUM RESPONSE WAS LINEAR IN THIS INCREMENT

 MAXIMUM NON-PRESCRIBED INCREMENT IN NORMALIZED CONCENTRATION IS   4.625E-03

 ITERATION SUMMARY FOR THE INCREMENT:   1 TOTAL ITERATIONS, OF WHICH
   0 ARE SEVERE DISCONTINUITY ITERATIONS AND  1 ARE EQUILIBRIUM ITERATIONS.

 TIME INCREMENT COMPLETED   3.73    ,  FRACTION OF STEP COMPLETED   1.00    
 STEP TIME COMPLETED        600.    ,  TOTAL TIME COMPLETED         600.    


          THE ANALYSIS HAS BEEN COMPLETED



     ANALYSIS SUMMARY:
     TOTAL OF        206  INCREMENTS
                       3  CUTBACKS IN AUTOMATIC INCREMENTATION
                     209  ITERATIONS INCLUDING CONTACT ITERATIONS IF PRESENT
                     209  PASSES THROUGH THE EQUATION SOLVER OF WHICH 
                     209  INVOLVE MATRIX DECOMPOSITION, INCLUDING
                       0  DECOMPOSITION(S) OF THE MASS MATRIX
                       1  REORDERING OF EQUATIONS TO MINIMIZE WAVEFRONT
                       0  ADDITIONAL RESIDUAL EVALUATIONS FOR LINE SEARCHES
                       0  ADDITIONAL OPERATOR EVALUATIONS FOR LINE SEARCHES
                       5  WARNING MESSAGES DURING USER INPUT PROCESSING
                       0  WARNING MESSAGES DURING ANALYSIS
                       0  ANALYSIS WARNINGS ARE NUMERICAL PROBLEM MESSAGES
                       0  ANALYSIS WARNINGS ARE NEGATIVE EIGENVALUE MESSAGES
                       0  ERROR MESSAGES



     JOB TIME SUMMARY
       USER TIME (SEC)      =   146.10    
       SYSTEM TIME (SEC)    =   26.700    
       TOTAL CPU TIME (SEC) =   172.80    
       WALLCLOCK TIME (SEC) =        224
