1

   Abaqus 3DEXPERIENCE R2018x                                  Date 07-Nov-2023   Time 11:20:39
   For use by AALTO UNIVERSITY under license from Dassault Systemes or its subsidiary.



                         The Abaqus Software is a product of:

                           Dassault Systemes SIMULIA Corp.
                           1301 Atwood Avenue, Suite 101W
                              Johnston, RI 02919, USA
 


                   The Abaqus Software is available only under license
                   from Dassault Systemes or its subsidiary and may be
                   used or reproduced only in accordance with the terms
                   of such license.
 
                          On machine D23-0234 
                          you are authorized to run
                          Abaqus/Standard until 20-Feb-2024

                          Your site id is: 200000000014764 


 
                    For assistance or any other information you may
                    obtain contact information for your local office
                    from the world wide web at:

                      http://www.3ds.com/products/simulia/locations/

 
                * * * * * * * * * * * * * * * * * * * * * * * * * * * * * * 
                *                                                         * 
                *                   *****************                     * 
                *                   *  N O T I C E  *                     * 
                *                   *****************                     * 
                *                                                         * 
                *                                                         * 
                *               Abaqus 3DEXPERIENCE R2018x                * 
                *                                                         * 
                *          BUILD ID: 2017_11_07-19.21.41 127140           * 
                *                                                         * 
                *                                                         * 
                *  Please make sure you are using                         * 
                *  release 3DEXPERIENCE R2018x manuals                    * 
                *  plus the notes accompanying this release.              * 
                *                                                         * 
                *                                                         * 
                *                                                         * 
                *                                                         * 
                *                                                         * 
                *   This program may not be used for commercial purposes  * 
                *           without payment of a commercial fee.          * 
                *                                                         * 
                * * * * * * * * * * * * * * * * * * * * * * * * * * * * * * 


 



     PROCESSING PART, INSTANCE, AND ASSEMBLY INFORMATION
   *******************************************************


     END PROCESSING PART, INSTANCE, AND ASSEMBLY INFORMATION
   ***********************************************************

  *Initial Conditions, type=TEMPERATURE
  *Initial Conditions, type=PRESSURE STRESS, FILE=H-1static
  *Initial Conditions, type=CONCENTRATION



     OPTIONS BEING PROCESSED
   ***************************


  *HEADING
          traction Hydrogen                                                                                                                                                                                                                                               
  *INCLUDE, INPUT=_mesh_md.inp

  *** INPUT DATA IS READ FROM FILE _mesh_md.inp                                                                                                                                                                                                                                                   

  *NODE, NSET=CORNERS
  *NSET, NSET=COR_SW
  *NGEN, NSET=BOT
  *NGEN, NSET=TOP
  *NFILL
  *NODE, NSET=SYMCORNERS
  *NGEN, NSET=SYM
  *NODE, NSET=HOLE
  *NSET, NSET=TIP
  *NSET, NSET=EQREAL, GENERATE
  *NSET, NSET=EQIMAG, GENERATE
  *NSET, NSET=SOLID, GENERATE
  *ELEMENT, TYPE=DC2D4, ELSET=M0
  *ELGEN, ELSET=A0
  *ELSET, ELSET=S0, GENERATE
  *ELSET, ELSET=MAP_S, GENERATE
  *ELEMENT, TYPE=DC2D4, ELSET=M1
  *ELGEN, ELSET=A1
  *ELSET, ELSET=S1, GENERATE
  *ELSET, ELSET=MAP_S, GENERATE
  *ELEMENT, TYPE=DC2D4, ELSET=M2
  *ELGEN, ELSET=A2
  *ELSET, ELSET=S2, GENERATE
  *ELSET, ELSET=MAP_S, GENERATE
  *ELEMENT, TYPE=DC2D4, ELSET=M3
  *ELGEN, ELSET=A3
  *ELSET, ELSET=S3, GENERATE
  *ELSET, ELSET=MAP_S, GENERATE
  *ELEMENT, TYPE=DC2D4, ELSET=M4
  *ELGEN, ELSET=A4
  *ELSET, ELSET=S4, GENERATE
  *ELSET, ELSET=MAP_S, GENERATE
  *ELEMENT, TYPE=DC2D4, ELSET=M5
  *ELGEN, ELSET=A5
  *ELSET, ELSET=S5, GENERATE
  *ELSET, ELSET=MAP_S, GENERATE
  *ELSET, ELSET=SOLID
  *ELSET, ELSET=SY
  *ELSET, ELSET=HOLE, GENERATE
  *ELSET, ELSET=BOUNDARY, GENERATE
  *NSET, NSET=BOUNDARY, GENERATE, UNSORTED
  *NSET, NSET=MPC_A, GENERATE, UNSORTED
  *NSET, NSET=MPC_B, GENERATE, UNSORTED
  *NSET, NSET=MPC_P, GENERATE, UNSORTED
  *INCLUDE, INPUT=_AISI.inp

  *** INPUT DATA IS READ FROM FILE _AISI.inp                                                                                                                                                                                                                                                      

  *Physical Constants, absolute zero=0.
  *MATERIAL, NAME=AISI
  *ELASTIC
  *PLASTIC
  *DIFFUSIVITY
  *KAPPA, TYPE=PRESS
  *SOLUBILITY
  *Initial Conditions, type=TEMPERATURE
  *Initial Conditions, type=PRESSURE STRESS, FILE=H-1static
  *Initial Conditions, type=CONCENTRATION
  *SOLID SECTION, ELSET=SOLID, MATERIAL=AISI
  *SOLID SECTION, ELSET=SOLID, MATERIAL=AISI

 ***WARNING: FOR TWO-DIMENSIONAL MODELS, IF A NON-UNITY THICKNESS IS SPECIFIED 
             FOR TWO-DIMENSIONAL SOLID ELEMENTS AND THESE ELEMENTS ARE INVOLVED 
             IN AN INTERACTION SUCH AS CONTACT, THE SAME THICKNESS SHOULD BE 
             SPECIFIED FOR THE OUT-OF-PLANE THICKNESS OF THE CORRESPONDING 
             SURFACE UNDER *SURFACE INTERACTION.
  *SURFACE, TYPE=ELEMENT, NAME=HOLE
  *SURFACE, TYPE=ELEMENT, NAME=HOLE
  *Initial Conditions, type=TEMPERATURE
  *Initial Conditions, type=PRESSURE STRESS, FILE=H-1static
  *Initial Conditions, type=CONCENTRATION
  *Boundary
  *Boundary
  *MPC
  *SURFACE, TYPE=ELEMENT, NAME=HOLE
  *Output, field, variable=PRESELECT
  *Output, history, variable=PRESELECT
  *Initial Conditions, type=TEMPERATURE
  *Initial Conditions, type=PRESSURE STRESS, FILE=H-1static
  *Initial Conditions, type=CONCENTRATION
  *Output, field, variable=PRESELECT
  *Output, history, variable=PRESELECT
  *Initial Conditions, type=TEMPERATURE
  *Initial Conditions, type=PRESSURE STRESS, FILE=H-1static

  INITIAL PRESSURES WILL BE TAKEN FROM STEP     1  INCREMENT   10  OF FILE H-1static                                                                                                                                                                                                                                                      
  *Initial Conditions, type=CONCENTRATION
  *Output, field, variable=PRESELECT
  *Output, history, variable=PRESELECT
  *STEP,INC=3000
  *Output, field, variable=PRESELECT
  *Output, history, variable=PRESELECT
  *STEP,INC=3000

 ***WARNING: NODE SET SYMCORNERS HAS NO MEMBERS AND WILL BE IGNORED.  NODES 
             DEFINED IN THIS SET MAY HAVE BEEN DELETED BECAUSE THEY WERE NOT 
             CONNECTED TO ANY ELEMENTS.

 ***WARNING: NODE SET EQIMAG HAS NO MEMBERS AND WILL BE IGNORED.  NODES DEFINED 
             IN THIS SET MAY HAVE BEEN DELETED BECAUSE THEY WERE NOT CONNECTED 
             TO ANY ELEMENTS.

 ***WARNING: NODE SET SYM HAS NO MEMBERS AND WILL BE IGNORED.  NODES DEFINED IN 
             THIS SET MAY HAVE BEEN DELETED BECAUSE THEY WERE NOT CONNECTED TO 
             ANY ELEMENTS.

 ***WARNING: NODE SET HOLE HAS NO MEMBERS AND WILL BE IGNORED.  NODES DEFINED 
             IN THIS SET MAY HAVE BEEN DELETED BECAUSE THEY WERE NOT CONNECTED 
             TO ANY ELEMENTS.
  *STEP,INC=3000
  *Mass Diffusion, end=PERIOD, dcmax=0.3
  *Boundary
  *Output, field, variable=PRESELECT
  *Output, history, variable=PRESELECT
  *End Step
  *STEP,INC=3000
  *Mass Diffusion, end=PERIOD, dcmax=0.3
  *Boundary
  *End Step



                                 I N I T I A L   N O R M A L I Z E D   C O N C E N T R A T I O N S

        NODE  NORMALIZED CONC.        NODE  NORMALIZED CONC.        NODE  NORMALIZED CONC.        NODE  NORMALIZED CONC.

           1      21.1                  33      21.1                  65      21.1                  97      21.1    
         129      21.1                 161      21.1                 193      21.1                 225      21.1    
         257      21.1                 289      21.1                 321      21.1                 353      21.1    
         385      21.1                 417      21.1                 433      21.1                 449      21.1    
         465      21.1                 473      21.1                 481      21.1                 489      21.1    
         497      21.1                 505      21.1                 509      21.1                 513      21.1    
         517      21.1                 521      21.1                 525      21.1                 527      21.1    
         529      21.1                 531      21.1                 533      21.1                 535      21.1    
         537      21.1                 539      21.1                 541      21.1                 543      21.1    
         544      21.1                 545      21.1                 546      21.1                 547      21.1    
         548      21.1                 549      21.1                 550      21.1                 551      21.1    
         552      21.1                 553      21.1                 554      21.1                 555      21.1    
         556      21.1                 557      21.1                 558      21.1                 559      21.1    
         560      21.1                 561      21.1                 562      21.1                 563      21.1    
         564      21.1                 565      21.1                 566      21.1                 567      21.1    
         568      21.1                 569      21.1                 570      21.1                 571      21.1    
         572      21.1                 573      21.1                 574      21.1                 575      21.1    
         576      21.1                 577      21.1                 578      21.1                 579      21.1    
         580      21.1                 581      21.1                 582      21.1                 583      21.1    
         584      21.1                 585      21.1                 586      21.1                 587      21.1    
         588      21.1                 589      21.1                 590      21.1                 591      21.1    
         592      21.1                 593      21.1                 594      21.1                 595      21.1    
         596      21.1                 597      21.1                 598      21.1                 599      21.1    
         600      21.1                 601      21.1                 602      21.1                 603      21.1    
         604      21.1                 605      21.1                 606      21.1                 607      21.1    
         608      21.1                 609      21.1                 610      21.1                 611      21.1    
         612      21.1                 613      21.1                 614      21.1                 615      21.1    
         616      21.1                 617      21.1                 618      21.1                 619      21.1    
         620      21.1                 621      21.1                 622      21.1                 623      21.1    
         624      21.1                 625      21.1                 626      21.1                 627      21.1    
         628      21.1                 629      21.1                 630      21.1                 631      21.1    
         632      21.1                 633      21.1                 634      21.1                 635      21.1    
         636      21.1                 637      21.1                 638      21.1                 639      21.1    
         640      21.1                 641      21.1                 642      21.1                 643      21.1    
         644      21.1                 645      21.1                 646      21.1                 647      21.1    
         648      21.1                 649      21.1                 650      21.1                 651      21.1    
         652      21.1                 653      21.1                 654      21.1                 655      21.1    
         656      21.1                 657      21.1                 658      21.1                 659      21.1    
         660      21.1                 661      21.1                 662      21.1                 663      21.1    
         664      21.1                 665      21.1                 666      21.1                 667      21.1    
         668      21.1                 669      21.1                 670      21.1                 671      21.1    
         672      21.1                 673      21.1                 674      21.1                 675      21.1    
         677      21.1                 679      21.1                 681      21.1                 683      21.1    
         685      21.1                 687      21.1                 689      21.1                 691      21.1    
         693      21.1                 697      21.1                 701      21.1                 705      21.1    
         709      21.1                 713      21.1                 721      21.1                 729      21.1    
         737      21.1                 745      21.1                 753      21.1                 769      21.1    
         785      21.1                 801      21.1                 833      21.1                 865      21.1    
         897      21.1                 929      21.1                 961      21.1                 993      21.1    
        1025      21.1                1057      21.1                1089      21.1                1121      21.1    
        1153      21.1                1185      21.1                1217      21.1                1249      21.1    
        1281      21.1                1313      21.1                1345      21.1                1377      21.1    
        1409      21.1                1441      21.1                1473      21.1                1505      21.1    
        1537      21.1                1569      21.1                1601      21.1                2591      21.1    
        2592      21.1                2593      21.1                2594      21.1                2595      21.1    
        2596      21.1                2597      21.1                2598      21.1                2599      21.1    
        2600      21.1                2601      21.1                2602      21.1                2603      21.1    
        2604      21.1                2605      21.1                2606      21.1                2607      21.1    
        2608      21.1                2609      21.1                2610      21.1                2611      21.1    
        2612      21.1                2613      21.1                2614      21.1                2615      21.1    
        2616      21.1                2617      21.1                2618      21.1                2619      21.1    
        2620      21.1                2621      21.1                2622      21.1                2623      21.1    
        2624      21.1                2625      21.1                2626      21.1                2627      21.1    
        2628      21.1                2629      21.1                2630      21.1                2631      21.1    
        2632      21.1                2633      21.1                2634      21.1                2635      21.1    
        2636      21.1                2637      21.1                2638      21.1                2639      21.1    
        2640      21.1                2641      21.1                2642      21.1                2643      21.1    
        2644      21.1                2645      21.1                2646      21.1                2647      21.1    
        2648      21.1                2649      21.1                2650      21.1                2651      21.1    
        2652      21.1                2653      21.1                2654      21.1                2655      21.1    
        2656      21.1                2657      21.1                2658      21.1                2659      21.1    
        2660      21.1                2661      21.1                2662      21.1                2663      21.1    
        2664      21.1                2665      21.1                2666      21.1                2667      21.1    
        2668      21.1                2669      21.1                2670      21.1                2671      21.1    
        2672      21.1                2673      21.1                2674      21.1                2675      21.1    
        2676      21.1                2677      21.1                2678      21.1                2679      21.1    
        2680      21.1                2681      21.1                2682      21.1                2683      21.1    
        2684      21.1                2685      21.1                2686      21.1                2687      21.1    
        2688      21.1                2689      21.1                2690      21.1                2691      21.1    
        2692      21.1                2693      21.1                2694      21.1                2695      21.1    
        2696      21.1                2697      21.1                2698      21.1                2699      21.1    
        2700      21.1                2701      21.1                2702      21.1                2703      21.1    
        2704      21.1                2705      21.1                2706      21.1                2707      21.1    
        2708      21.1                2709      21.1                2710      21.1                2711      21.1    
        2712      21.1                2713      21.1                2714      21.1                2715      21.1    
        2716      21.1                2717      21.1                2718      21.1                2719      21.1    
        2720      21.1                2721      21.1                2722      21.1                2723      21.1    
        4621      21.1                4623      21.1                4625      21.1                4627      21.1    
        4629      21.1                4631      21.1                4633      21.1                4635      21.1    
        4637      21.1                4639      21.1                4640      21.1                4641      21.1    
        4642      21.1                4643      21.1                4644      21.1                4645      21.1    
        4646      21.1                4647      21.1                4648      21.1                4649      21.1    
        4650      21.1                4651      21.1                4652      21.1                4653      21.1    
        4654      21.1                4655      21.1                4656      21.1                4657      21.1    
        4658      21.1                4659      21.1                4660      21.1                4661      21.1    
        4662      21.1                4663      21.1                4664      21.1                4665      21.1    
        4666      21.1                4667      21.1                4668      21.1                4669      21.1    
        4670      21.1                4671      21.1                4672      21.1                4673      21.1    
        4674      21.1                4675      21.1                4676      21.1                4677      21.1    
        4678      21.1                4679      21.1                4680      21.1                4681      21.1    
        4682      21.1                4683      21.1                4684      21.1                4685      21.1    
        4686      21.1                4687      21.1                4688      21.1                4689      21.1    
        4690      21.1                4691      21.1                4692      21.1                4693      21.1    
        4694      21.1                4695      21.1                4696      21.1                4697      21.1    
        4698      21.1                4699      21.1                4700      21.1                4701      21.1    
        4702      21.1                4703      21.1                4704      21.1                4705      21.1    
        4706      21.1                4707      21.1                4708      21.1                4709      21.1    
        4710      21.1                4711      21.1                4712      21.1                4713      21.1    
        4714      21.1                4715      21.1                4716      21.1                4717      21.1    
        4718      21.1                4719      21.1                4720      21.1                4721      21.1    
        4722      21.1                4723      21.1                4724      21.1                4725      21.1    
        4726      21.1                4727      21.1                4728      21.1                4729      21.1    
        4730      21.1                4731      21.1                4732      21.1                4733      21.1    
        4734      21.1                4735      21.1                4736      21.1                4737      21.1    
        4738      21.1                4739      21.1                4740      21.1                4741      21.1    
        4742      21.1                4743      21.1                4744      21.1                4745      21.1    
        4746      21.1                4747      21.1                4748      21.1                4749      21.1    
        4750      21.1                4751      21.1                4752      21.1                4753      21.1    
        4754      21.1                4755      21.1                4756      21.1                4757      21.1    
        4758      21.1                4759      21.1                4760      21.1                4761      21.1    
        4762      21.1                4763      21.1                4764      21.1                4765      21.1    
        4766      21.1                4767      21.1                4768      21.1                4769      21.1    
        4770      21.1                4771      21.1                4773      21.1                4775      21.1    
        4777      21.1                4779      21.1                4781      21.1                4783      21.1    
        4785      21.1                4787      21.1                4789      21.1                6687      21.1    
        6688      21.1                6689      21.1                6690      21.1                6691      21.1    
        6692      21.1                6693      21.1                6694      21.1                6695      21.1    
        6696      21.1                6697      21.1                6698      21.1                6699      21.1    
        6700      21.1                6701      21.1                6702      21.1                6703      21.1    
        6704      21.1                6705      21.1                6706      21.1                6707      21.1    
        6708      21.1                6709      21.1                6710      21.1                6711      21.1    
        6712      21.1                6713      21.1                6714      21.1                6715      21.1    
        6716      21.1                6717      21.1                6718      21.1                6719      21.1    
        6720      21.1                6721      21.1                6722      21.1                6723      21.1    
        6724      21.1                6725      21.1                6726      21.1                6727      21.1    
        6728      21.1                6729      21.1                6730      21.1                6731      21.1    
        6732      21.1                6733      21.1                6734      21.1                6735      21.1    
        6736      21.1                6737      21.1                6738      21.1                6739      21.1    
        6740      21.1                6741      21.1                6742      21.1                6743      21.1    
        6744      21.1                6745      21.1                6746      21.1                6747      21.1    
        6748      21.1                6749      21.1                6750      21.1                6751      21.1    
        6752      21.1                6753      21.1                6754      21.1                6755      21.1    
        6756      21.1                6757      21.1                6758      21.1                6759      21.1    
        6760      21.1                6761      21.1                6762      21.1                6763      21.1    
        6764      21.1                6765      21.1                6766      21.1                6767      21.1    
        6768      21.1                6769      21.1                6770      21.1                6771      21.1    
        6772      21.1                6773      21.1                6774      21.1                6775      21.1    
        6776      21.1                6777      21.1                6778      21.1                6779      21.1    
        6780      21.1                6781      21.1                6782      21.1                6783      21.1    
        6784      21.1                6785      21.1                6786      21.1                6787      21.1    
        6788      21.1                6789      21.1                6790      21.1                6791      21.1    
        6792      21.1                6793      21.1                6794      21.1                6795      21.1    
        6796      21.1                6797      21.1                6798      21.1                6799      21.1    
        6800      21.1                6801      21.1                6802      21.1                6803      21.1    
        6804      21.1                6805      21.1                6806      21.1                6807      21.1    
        6808      21.1                6809      21.1                6810      21.1                6811      21.1    
        6812      21.1                6813      21.1                6814      21.1                6815      21.1    
        6816      21.1                6817      21.1                6818      21.1                6819      21.1    
        8697      21.1                8701      21.1                8705      21.1                8709      21.1    
        8713      21.1                8717      21.1                8719      21.1                8721      21.1    
        8723      21.1                8725      21.1                8727      21.1                8729      21.1    
        8731      21.1                8733      21.1                8735      21.1                8736      21.1    
        8737      21.1                8738      21.1                8739      21.1                8740      21.1    
        8741      21.1                8742      21.1                8743      21.1                8744      21.1    
        8745      21.1                8746      21.1                8747      21.1                8748      21.1    
        8749      21.1                8750      21.1                8751      21.1                8752      21.1    
        8753      21.1                8754      21.1                8755      21.1                8756      21.1    
        8757      21.1                8758      21.1                8759      21.1                8760      21.1    
        8761      21.1                8762      21.1                8763      21.1                8764      21.1    
        8765      21.1                8766      21.1                8767      21.1                8768      21.1    
        8769      21.1                8770      21.1                8771      21.1                8772      21.1    
        8773      21.1                8774      21.1                8775      21.1                8776      21.1    
        8777      21.1                8778      21.1                8779      21.1                8780      21.1    
        8781      21.1                8782      21.1                8783      21.1                8784      21.1    
        8785      21.1                8786      21.1                8787      21.1                8788      21.1    
        8789      21.1                8790      21.1                8791      21.1                8792      21.1    
        8793      21.1                8794      21.1                8795      21.1                8796      21.1    
        8797      21.1                8798      21.1                8799      21.1                8800      21.1    
        8801      21.1                8802      21.1                8803      21.1                8804      21.1    
        8805      21.1                8806      21.1                8807      21.1                8808      21.1    
        8809      21.1                8810      21.1                8811      21.1                8812      21.1    
        8813      21.1                8814      21.1                8815      21.1                8816      21.1    
        8817      21.1                8818      21.1                8819      21.1                8820      21.1    
        8821      21.1                8822      21.1                8823      21.1                8824      21.1    
        8825      21.1                8826      21.1                8827      21.1                8828      21.1    
        8829      21.1                8830      21.1                8831      21.1                8832      21.1    
        8833      21.1                8834      21.1                8835      21.1                8836      21.1    
        8837      21.1                8838      21.1                8839      21.1                8840      21.1    
        8841      21.1                8842      21.1                8843      21.1                8844      21.1    
        8845      21.1                8846      21.1                8847      21.1                8848      21.1    
        8849      21.1                8850      21.1                8851      21.1                8852      21.1    
        8853      21.1                8854      21.1                8855      21.1                8856      21.1    
        8857      21.1                8858      21.1                8859      21.1                8860      21.1    
        8861      21.1                8862      21.1                8863      21.1                8864      21.1    
        8865      21.1                8866      21.1                8867      21.1                8869      21.1    
        8871      21.1                8873      21.1                8875      21.1                8877      21.1    
        8879      21.1                8881      21.1                8883      21.1                8885      21.1    
        8889      21.1                8893      21.1                8897      21.1                8901      21.1    
        8905      21.1               10783      21.1               10784      21.1               10785      21.1    
       10786      21.1               10787      21.1               10788      21.1               10789      21.1    
       10790      21.1               10791      21.1               10792      21.1               10793      21.1    
       10794      21.1               10795      21.1               10796      21.1               10797      21.1    
       10798      21.1               10799      21.1               10800      21.1               10801      21.1    
       10802      21.1               10803      21.1               10804      21.1               10805      21.1    
       10806      21.1               10807      21.1               10808      21.1               10809      21.1    
       10810      21.1               10811      21.1               10812      21.1               10813      21.1    
       10814      21.1               10815      21.1               10816      21.1               10817      21.1    
       10818      21.1               10819      21.1               10820      21.1               10821      21.1    
       10822      21.1               10823      21.1               10824      21.1               10825      21.1    
       10826      21.1               10827      21.1               10828      21.1               10829      21.1    
       10830      21.1               10831      21.1               10832      21.1               10833      21.1    
       10834      21.1               10835      21.1               10836      21.1               10837      21.1    
       10838      21.1               10839      21.1               10840      21.1               10841      21.1    
       10842      21.1               10843      21.1               10844      21.1               10845      21.1    
       10846      21.1               10847      21.1               10848      21.1               10849      21.1    
       10850      21.1               10851      21.1               10852      21.1               10853      21.1    
       10854      21.1               10855      21.1               10856      21.1               10857      21.1    
       10858      21.1               10859      21.1               10860      21.1               10861      21.1    
       10862      21.1               10863      21.1               10864      21.1               10865      21.1    
       10866      21.1               10867      21.1               10868      21.1               10869      21.1    
       10870      21.1               10871      21.1               10872      21.1               10873      21.1    
       10874      21.1               10875      21.1               10876      21.1               10877      21.1    
       10878      21.1               10879      21.1               10880      21.1               10881      21.1    
       10882      21.1               10883      21.1               10884      21.1               10885      21.1    
       10886      21.1               10887      21.1               10888      21.1               10889      21.1    
       10890      21.1               10891      21.1               10892      21.1               10893      21.1    
       10894      21.1               10895      21.1               10896      21.1               10897      21.1    
       10898      21.1               10899      21.1               10900      21.1               10901      21.1    
       10902      21.1               10903      21.1               10904      21.1               10905      21.1    
       10906      21.1               10907      21.1               10908      21.1               10909      21.1    
       10910      21.1               10911      21.1               10912      21.1               10913      21.1    
       10914      21.1               10915      21.1               12813      21.1               12815      21.1    
       12817      21.1               12819      21.1               12821      21.1               12823      21.1    
       12825      21.1               12827      21.1               12829      21.1               12831      21.1    
       12832      21.1               12833      21.1               12834      21.1               12835      21.1    
       12836      21.1               12837      21.1               12838      21.1               12839      21.1    
       12840      21.1               12841      21.1               12842      21.1               12843      21.1    
       12844      21.1               12845      21.1               12846      21.1               12847      21.1    
       12848      21.1               12849      21.1               12850      21.1               12851      21.1    
       12852      21.1               12853      21.1               12854      21.1               12855      21.1    
       12856      21.1               12857      21.1               12858      21.1               12859      21.1    
       12860      21.1               12861      21.1               12862      21.1               12863      21.1    
       12864      21.1               12865      21.1               12866      21.1               12867      21.1    
       12868      21.1               12869      21.1               12870      21.1               12871      21.1    
       12872      21.1               12873      21.1               12874      21.1               12875      21.1    
       12876      21.1               12877      21.1               12878      21.1               12879      21.1    
       12880      21.1               12881      21.1               12882      21.1               12883      21.1    
       12884      21.1               12885      21.1               12886      21.1               12887      21.1    
       12888      21.1               12889      21.1               12890      21.1               12891      21.1    
       12892      21.1               12893      21.1               12894      21.1               12895      21.1    
       12896      21.1               12897      21.1               12898      21.1               12899      21.1    
       12900      21.1               12901      21.1               12902      21.1               12903      21.1    
       12904      21.1               12905      21.1               12906      21.1               12907      21.1    
       12908      21.1               12909      21.1               12910      21.1               12911      21.1    
       12912      21.1               12913      21.1               12914      21.1               12915      21.1    
       12916      21.1               12917      21.1               12918      21.1               12919      21.1    
       12920      21.1               12921      21.1               12922      21.1               12923      21.1    
       12924      21.1               12925      21.1               12926      21.1               12927      21.1    
       12928      21.1               12929      21.1               12930      21.1               12931      21.1    
       12932      21.1               12933      21.1               12934      21.1               12935      21.1    
       12936      21.1               12937      21.1               12938      21.1               12939      21.1    
       12940      21.1               12941      21.1               12942      21.1               12943      21.1    
       12944      21.1               12945      21.1               12946      21.1               12947      21.1    
       12948      21.1               12949      21.1               12950      21.1               12951      21.1    
       12952      21.1               12953      21.1               12954      21.1               12955      21.1    
       12956      21.1               12957      21.1               12958      21.1               12959      21.1    
       12960      21.1               12961      21.1               12962      21.1               12963      21.1    
       12965      21.1               12967      21.1               12969      21.1               12971      21.1    
       12973      21.1               12975      21.1               12977      21.1               12979      21.1    
       12981      21.1               14879      21.1               14880      21.1               14881      21.1    
       14882      21.1               14883      21.1               14884      21.1               14885      21.1    
       14886      21.1               14887      21.1               14888      21.1               14889      21.1    
       14890      21.1               14891      21.1               14892      21.1               14893      21.1    
       14894      21.1               14895      21.1               14896      21.1               14897      21.1    
       14898      21.1               14899      21.1               14900      21.1               14901      21.1    
       14902      21.1               14903      21.1               14904      21.1               14905      21.1    
       14906      21.1               14907      21.1               14908      21.1               14909      21.1    
       14910      21.1               14911      21.1               14912      21.1               14913      21.1    
       14914      21.1               14915      21.1               14916      21.1               14917      21.1    
       14918      21.1               14919      21.1               14920      21.1               14921      21.1    
       14922      21.1               14923      21.1               14924      21.1               14925      21.1    
       14926      21.1               14927      21.1               14928      21.1               14929      21.1    
       14930      21.1               14931      21.1               14932      21.1               14933      21.1    
       14934      21.1               14935      21.1               14936      21.1               14937      21.1    
       14938      21.1               14939      21.1               14940      21.1               14941      21.1    
       14942      21.1               14943      21.1               14944      21.1               14945      21.1    
       14946      21.1               14947      21.1               14948      21.1               14949      21.1    
       14950      21.1               14951      21.1               14952      21.1               14953      21.1    
       14954      21.1               14955      21.1               14956      21.1               14957      21.1    
       14958      21.1               14959      21.1               14960      21.1               14961      21.1    
       14962      21.1               14963      21.1               14964      21.1               14965      21.1    
       14966      21.1               14967      21.1               14968      21.1               14969      21.1    
       14970      21.1               14971      21.1               14972      21.1               14973      21.1    
       14974      21.1               14975      21.1               14976      21.1               14977      21.1    
       14978      21.1               14979      21.1               14980      21.1               14981      21.1    
       14982      21.1               14983      21.1               14984      21.1               14985      21.1    
       14986      21.1               14987      21.1               14988      21.1               14989      21.1    
       14990      21.1               14991      21.1               14992      21.1               14993      21.1    
       14994      21.1               14995      21.1               14996      21.1               14997      21.1    
       14998      21.1               14999      21.1               15000      21.1               15001      21.1    
       15002      21.1               15003      21.1               15004      21.1               15005      21.1    
       15006      21.1               15007      21.1               15008      21.1               15009      21.1    
       15010      21.1               15011      21.1               16849      21.1               16857      21.1    
       16865      21.1               16873      21.1               16881      21.1               16889      21.1    
       16893      21.1               16897      21.1               16901      21.1               16905      21.1    
       16909      21.1               16911      21.1               16913      21.1               16915      21.1    
       16917      21.1               16919      21.1               16921      21.1               16923      21.1    
       16925      21.1               16927      21.1               16928      21.1               16929      21.1    
       16930      21.1               16931      21.1               16932      21.1               16933      21.1    
       16934      21.1               16935      21.1               16936      21.1               16937      21.1    
       16938      21.1               16939      21.1               16940      21.1               16941      21.1    
       16942      21.1               16943      21.1               16944      21.1               16945      21.1    
       16946      21.1               16947      21.1               16948      21.1               16949      21.1    
       16950      21.1               16951      21.1               16952      21.1               16953      21.1    
       16954      21.1               16955      21.1               16956      21.1               16957      21.1    
       16958      21.1               16959      21.1               16960      21.1               16961      21.1    
       16962      21.1               16963      21.1               16964      21.1               16965      21.1    
       16966      21.1               16967      21.1               16968      21.1               16969      21.1    
       16970      21.1               16971      21.1               16972      21.1               16973      21.1    
       16974      21.1               16975      21.1               16976      21.1               16977      21.1    
       16978      21.1               16979      21.1               16980      21.1               16981      21.1    
       16982      21.1               16983      21.1               16984      21.1               16985      21.1    
       16986      21.1               16987      21.1               16988      21.1               16989      21.1    
       16990      21.1               16991      21.1               16992      21.1               16993      21.1    
       16994      21.1               16995      21.1               16996      21.1               16997      21.1    
       16998      21.1               16999      21.1               17000      21.1               17001      21.1    
       17002      21.1               17003      21.1               17004      21.1               17005      21.1    
       17006      21.1               17007      21.1               17008      21.1               17009      21.1    
       17010      21.1               17011      21.1               17012      21.1               17013      21.1    
       17014      21.1               17015      21.1               17016      21.1               17017      21.1    
       17018      21.1               17019      21.1               17020      21.1               17021      21.1    
       17022      21.1               17023      21.1               17024      21.1               17025      21.1    
       17026      21.1               17027      21.1               17028      21.1               17029      21.1    
       17030      21.1               17031      21.1               17032      21.1               17033      21.1    
       17034      21.1               17035      21.1               17036      21.1               17037      21.1    
       17038      21.1               17039      21.1               17040      21.1               17041      21.1    
       17042      21.1               17043      21.1               17044      21.1               17045      21.1    
       17046      21.1               17047      21.1               17048      21.1               17049      21.1    
       17050      21.1               17051      21.1               17052      21.1               17053      21.1    
       17054      21.1               17055      21.1               17056      21.1               17057      21.1    
       17058      21.1               17059      21.1               17061      21.1               17063      21.1    
       17065      21.1               17067      21.1               17069      21.1               17071      21.1    
       17073      21.1               17075      21.1               17077      21.1               17081      21.1    
       17085      21.1               17089      21.1               17093      21.1               17097      21.1    
       17105      21.1               17113      21.1               17121      21.1               17129      21.1    
       17137      21.1               18975      21.1               18976      21.1               18977      21.1    
       18978      21.1               18979      21.1               18980      21.1               18981      21.1    
       18982      21.1               18983      21.1               18984      21.1               18985      21.1    
       18986      21.1               18987      21.1               18988      21.1               18989      21.1    
       18990      21.1               18991      21.1               18992      21.1               18993      21.1    
       18994      21.1               18995      21.1               18996      21.1               18997      21.1    
       18998      21.1               18999      21.1               19000      21.1               19001      21.1    
       19002      21.1               19003      21.1               19004      21.1               19005      21.1    
       19006      21.1               19007      21.1               19008      21.1               19009      21.1    
       19010      21.1               19011      21.1               19012      21.1               19013      21.1    
       19014      21.1               19015      21.1               19016      21.1               19017      21.1    
       19018      21.1               19019      21.1               19020      21.1               19021      21.1    
       19022      21.1               19023      21.1               19024      21.1               19025      21.1    
       19026      21.1               19027      21.1               19028      21.1               19029      21.1    
       19030      21.1               19031      21.1               19032      21.1               19033      21.1    
       19034      21.1               19035      21.1               19036      21.1               19037      21.1    
       19038      21.1               19039      21.1               19040      21.1               19041      21.1    
       19042      21.1               19043      21.1               19044      21.1               19045      21.1    
       19046      21.1               19047      21.1               19048      21.1               19049      21.1    
       19050      21.1               19051      21.1               19052      21.1               19053      21.1    
       19054      21.1               19055      21.1               19056      21.1               19057      21.1    
       19058      21.1               19059      21.1               19060      21.1               19061      21.1    
       19062      21.1               19063      21.1               19064      21.1               19065      21.1    
       19066      21.1               19067      21.1               19068      21.1               19069      21.1    
       19070      21.1               19071      21.1               19072      21.1               19073      21.1    
       19074      21.1               19075      21.1               19076      21.1               19077      21.1    
       19078      21.1               19079      21.1               19080      21.1               19081      21.1    
       19082      21.1               19083      21.1               19084      21.1               19085      21.1    
       19086      21.1               19087      21.1               19088      21.1               19089      21.1    
       19090      21.1               19091      21.1               19092      21.1               19093      21.1    
       19094      21.1               19095      21.1               19096      21.1               19097      21.1    
       19098      21.1               19099      21.1               19100      21.1               19101      21.1    
       19102      21.1               19103      21.1               19104      21.1               19105      21.1    
       19106      21.1               19107      21.1               21005      21.1               21007      21.1    
       21009      21.1               21011      21.1               21013      21.1               21015      21.1    
       21017      21.1               21019      21.1               21021      21.1               21023      21.1    
       21024      21.1               21025      21.1               21026      21.1               21027      21.1    
       21028      21.1               21029      21.1               21030      21.1               21031      21.1    
       21032      21.1               21033      21.1               21034      21.1               21035      21.1    
       21036      21.1               21037      21.1               21038      21.1               21039      21.1    
       21040      21.1               21041      21.1               21042      21.1               21043      21.1    
       21044      21.1               21045      21.1               21046      21.1               21047      21.1    
       21048      21.1               21049      21.1               21050      21.1               21051      21.1    
       21052      21.1               21053      21.1               21054      21.1               21055      21.1    
       21056      21.1               21057      21.1               21058      21.1               21059      21.1    
       21060      21.1               21061      21.1               21062      21.1               21063      21.1    
       21064      21.1               21065      21.1               21066      21.1               21067      21.1    
       21068      21.1               21069      21.1               21070      21.1               21071      21.1    
       21072      21.1               21073      21.1               21074      21.1               21075      21.1    
       21076      21.1               21077      21.1               21078      21.1               21079      21.1    
       21080      21.1               21081      21.1               21082      21.1               21083      21.1    
       21084      21.1               21085      21.1               21086      21.1               21087      21.1    
       21088      21.1               21089      21.1               21090      21.1               21091      21.1    
       21092      21.1               21093      21.1               21094      21.1               21095      21.1    
       21096      21.1               21097      21.1               21098      21.1               21099      21.1    
       21100      21.1               21101      21.1               21102      21.1               21103      21.1    
       21104      21.1               21105      21.1               21106      21.1               21107      21.1    
       21108      21.1               21109      21.1               21110      21.1               21111      21.1    
       21112      21.1               21113      21.1               21114      21.1               21115      21.1    
       21116      21.1               21117      21.1               21118      21.1               21119      21.1    
       21120      21.1               21121      21.1               21122      21.1               21123      21.1    
       21124      21.1               21125      21.1               21126      21.1               21127      21.1    
       21128      21.1               21129      21.1               21130      21.1               21131      21.1    
       21132      21.1               21133      21.1               21134      21.1               21135      21.1    
       21136      21.1               21137      21.1               21138      21.1               21139      21.1    
       21140      21.1               21141      21.1               21142      21.1               21143      21.1    
       21144      21.1               21145      21.1               21146      21.1               21147      21.1    
       21148      21.1               21149      21.1               21150      21.1               21151      21.1    
       21152      21.1               21153      21.1               21154      21.1               21155      21.1    
       21157      21.1               21159      21.1               21161      21.1               21163      21.1    
       21165      21.1               21167      21.1               21169      21.1               21171      21.1    
       21173      21.1               23071      21.1               23072      21.1               23073      21.1    
       23074      21.1               23075      21.1               23076      21.1               23077      21.1    
       23078      21.1               23079      21.1               23080      21.1               23081      21.1    
       23082      21.1               23083      21.1               23084      21.1               23085      21.1    
       23086      21.1               23087      21.1               23088      21.1               23089      21.1    
       23090      21.1               23091      21.1               23092      21.1               23093      21.1    
       23094      21.1               23095      21.1               23096      21.1               23097      21.1    
       23098      21.1               23099      21.1               23100      21.1               23101      21.1    
       23102      21.1               23103      21.1               23104      21.1               23105      21.1    
       23106      21.1               23107      21.1               23108      21.1               23109      21.1    
       23110      21.1               23111      21.1               23112      21.1               23113      21.1    
       23114      21.1               23115      21.1               23116      21.1               23117      21.1    
       23118      21.1               23119      21.1               23120      21.1               23121      21.1    
       23122      21.1               23123      21.1               23124      21.1               23125      21.1    
       23126      21.1               23127      21.1               23128      21.1               23129      21.1    
       23130      21.1               23131      21.1               23132      21.1               23133      21.1    
       23134      21.1               23135      21.1               23136      21.1               23137      21.1    
       23138      21.1               23139      21.1               23140      21.1               23141      21.1    
       23142      21.1               23143      21.1               23144      21.1               23145      21.1    
       23146      21.1               23147      21.1               23148      21.1               23149      21.1    
       23150      21.1               23151      21.1               23152      21.1               23153      21.1    
       23154      21.1               23155      21.1               23156      21.1               23157      21.1    
       23158      21.1               23159      21.1               23160      21.1               23161      21.1    
       23162      21.1               23163      21.1               23164      21.1               23165      21.1    
       23166      21.1               23167      21.1               23168      21.1               23169      21.1    
       23170      21.1               23171      21.1               23172      21.1               23173      21.1    
       23174      21.1               23175      21.1               23176      21.1               23177      21.1    
       23178      21.1               23179      21.1               23180      21.1               23181      21.1    
       23182      21.1               23183      21.1               23184      21.1               23185      21.1    
       23186      21.1               23187      21.1               23188      21.1               23189      21.1    
       23190      21.1               23191      21.1               23192      21.1               23193      21.1    
       23194      21.1               23195      21.1               23196      21.1               23197      21.1    
       23198      21.1               23199      21.1               23200      21.1               23201      21.1    
       23202      21.1               23203      21.1               25081      21.1               25085      21.1    
       25089      21.1               25093      21.1               25097      21.1               25101      21.1    
       25103      21.1               25105      21.1               25107      21.1               25109      21.1    
       25111      21.1               25113      21.1               25115      21.1               25117      21.1    
       25119      21.1               25120      21.1               25121      21.1               25122      21.1    
       25123      21.1               25124      21.1               25125      21.1               25126      21.1    
       25127      21.1               25128      21.1               25129      21.1               25130      21.1    
       25131      21.1               25132      21.1               25133      21.1               25134      21.1    
       25135      21.1               25136      21.1               25137      21.1               25138      21.1    
       25139      21.1               25140      21.1               25141      21.1               25142      21.1    
       25143      21.1               25144      21.1               25145      21.1               25146      21.1    
       25147      21.1               25148      21.1               25149      21.1               25150      21.1    
       25151      21.1               25152      21.1               25153      21.1               25154      21.1    
       25155      21.1               25156      21.1               25157      21.1               25158      21.1    
       25159      21.1               25160      21.1               25161      21.1               25162      21.1    
       25163      21.1               25164      21.1               25165      21.1               25166      21.1    
       25167      21.1               25168      21.1               25169      21.1               25170      21.1    
       25171      21.1               25172      21.1               25173      21.1               25174      21.1    
       25175      21.1               25176      21.1               25177      21.1               25178      21.1    
       25179      21.1               25180      21.1               25181      21.1               25182      21.1    
       25183      21.1               25184      21.1               25185      21.1               25186      21.1    
       25187      21.1               25188      21.1               25189      21.1               25190      21.1    
       25191      21.1               25192      21.1               25193      21.1               25194      21.1    
       25195      21.1               25196      21.1               25197      21.1               25198      21.1    
       25199      21.1               25200      21.1               25201      21.1               25202      21.1    
       25203      21.1               25204      21.1               25205      21.1               25206      21.1    
       25207      21.1               25208      21.1               25209      21.1               25210      21.1    
       25211      21.1               25212      21.1               25213      21.1               25214      21.1    
       25215      21.1               25216      21.1               25217      21.1               25218      21.1    
       25219      21.1               25220      21.1               25221      21.1               25222      21.1    
       25223      21.1               25224      21.1               25225      21.1               25226      21.1    
       25227      21.1               25228      21.1               25229      21.1               25230      21.1    
       25231      21.1               25232      21.1               25233      21.1               25234      21.1    
       25235      21.1               25236      21.1               25237      21.1               25238      21.1    
       25239      21.1               25240      21.1               25241      21.1               25242      21.1    
       25243      21.1               25244      21.1               25245      21.1               25246      21.1    
       25247      21.1               25248      21.1               25249      21.1               25250      21.1    
       25251      21.1               25253      21.1               25255      21.1               25257      21.1    
       25259      21.1               25261      21.1               25263      21.1               25265      21.1    
       25267      21.1               25269      21.1               25273      21.1               25277      21.1    
       25281      21.1               25285      21.1               25289      21.1               27167      21.1    
       27168      21.1               27169      21.1               27170      21.1               27171      21.1    
       27172      21.1               27173      21.1               27174      21.1               27175      21.1    
       27176      21.1               27177      21.1               27178      21.1               27179      21.1    
       27180      21.1               27181      21.1               27182      21.1               27183      21.1    
       27184      21.1               27185      21.1               27186      21.1               27187      21.1    
       27188      21.1               27189      21.1               27190      21.1               27191      21.1    
       27192      21.1               27193      21.1               27194      21.1               27195      21.1    
       27196      21.1               27197      21.1               27198      21.1               27199      21.1    
       27200      21.1               27201      21.1               27202      21.1               27203      21.1    
       27204      21.1               27205      21.1               27206      21.1               27207      21.1    
       27208      21.1               27209      21.1               27210      21.1               27211      21.1    
       27212      21.1               27213      21.1               27214      21.1               27215      21.1    
       27216      21.1               27217      21.1               27218      21.1               27219      21.1    
       27220      21.1               27221      21.1               27222      21.1               27223      21.1    
       27224      21.1               27225      21.1               27226      21.1               27227      21.1    
       27228      21.1               27229      21.1               27230      21.1               27231      21.1    
       27232      21.1               27233      21.1               27234      21.1               27235      21.1    
       27236      21.1               27237      21.1               27238      21.1               27239      21.1    
       27240      21.1               27241      21.1               27242      21.1               27243      21.1    
       27244      21.1               27245      21.1               27246      21.1               27247      21.1    
       27248      21.1               27249      21.1               27250      21.1               27251      21.1    
       27252      21.1               27253      21.1               27254      21.1               27255      21.1    
       27256      21.1               27257      21.1               27258      21.1               27259      21.1    
       27260      21.1               27261      21.1               27262      21.1               27263      21.1    
       27264      21.1               27265      21.1               27266      21.1               27267      21.1    
       27268      21.1               27269      21.1               27270      21.1               27271      21.1    
       27272      21.1               27273      21.1               27274      21.1               27275      21.1    
       27276      21.1               27277      21.1               27278      21.1               27279      21.1    
       27280      21.1               27281      21.1               27282      21.1               27283      21.1    
       27284      21.1               27285      21.1               27286      21.1               27287      21.1    
       27288      21.1               27289      21.1               27290      21.1               27291      21.1    
       27292      21.1               27293      21.1               27294      21.1               27295      21.1    
       27296      21.1               27297      21.1               27298      21.1               27299      21.1    
       29197      21.1               29199      21.1               29201      21.1               29203      21.1    
       29205      21.1               29207      21.1               29209      21.1               29211      21.1    
       29213      21.1               29215      21.1               29216      21.1               29217      21.1    
       29218      21.1               29219      21.1               29220      21.1               29221      21.1    
       29222      21.1               29223      21.1               29224      21.1               29225      21.1    
       29226      21.1               29227      21.1               29228      21.1               29229      21.1    
       29230      21.1               29231      21.1               29232      21.1               29233      21.1    
       29234      21.1               29235      21.1               29236      21.1               29237      21.1    
       29238      21.1               29239      21.1               29240      21.1               29241      21.1    
       29242      21.1               29243      21.1               29244      21.1               29245      21.1    
       29246      21.1               29247      21.1               29248      21.1               29249      21.1    
       29250      21.1               29251      21.1               29252      21.1               29253      21.1    
       29254      21.1               29255      21.1               29256      21.1               29257      21.1    
       29258      21.1               29259      21.1               29260      21.1               29261      21.1    
       29262      21.1               29263      21.1               29264      21.1               29265      21.1    
       29266      21.1               29267      21.1               29268      21.1               29269      21.1    
       29270      21.1               29271      21.1               29272      21.1               29273      21.1    
       29274      21.1               29275      21.1               29276      21.1               29277      21.1    
       29278      21.1               29279      21.1               29280      21.1               29281      21.1    
       29282      21.1               29283      21.1               29284      21.1               29285      21.1    
       29286      21.1               29287      21.1               29288      21.1               29289      21.1    
       29290      21.1               29291      21.1               29292      21.1               29293      21.1    
       29294      21.1               29295      21.1               29296      21.1               29297      21.1    
       29298      21.1               29299      21.1               29300      21.1               29301      21.1    
       29302      21.1               29303      21.1               29304      21.1               29305      21.1    
       29306      21.1               29307      21.1               29308      21.1               29309      21.1    
       29310      21.1               29311      21.1               29312      21.1               29313      21.1    
       29314      21.1               29315      21.1               29316      21.1               29317      21.1    
       29318      21.1               29319      21.1               29320      21.1               29321      21.1    
       29322      21.1               29323      21.1               29324      21.1               29325      21.1    
       29326      21.1               29327      21.1               29328      21.1               29329      21.1    
       29330      21.1               29331      21.1               29332      21.1               29333      21.1    
       29334      21.1               29335      21.1               29336      21.1               29337      21.1    
       29338      21.1               29339      21.1               29340      21.1               29341      21.1    
       29342      21.1               29343      21.1               29344      21.1               29345      21.1    
       29346      21.1               29347      21.1               29349      21.1               29351      21.1    
       29353      21.1               29355      21.1               29357      21.1               29359      21.1    
       29361      21.1               29363      21.1               29365      21.1               31263      21.1    
       31264      21.1               31265      21.1               31266      21.1               31267      21.1    
       31268      21.1               31269      21.1               31270      21.1               31271      21.1    
       31272      21.1               31273      21.1               31274      21.1               31275      21.1    
       31276      21.1               31277      21.1               31278      21.1               31279      21.1    
       31280      21.1               31281      21.1               31282      21.1               31283      21.1    
       31284      21.1               31285      21.1               31286      21.1               31287      21.1    
       31288      21.1               31289      21.1               31290      21.1               31291      21.1    
       31292      21.1               31293      21.1               31294      21.1               31295      21.1    
       31296      21.1               31297      21.1               31298      21.1               31299      21.1    
       31300      21.1               31301      21.1               31302      21.1               31303      21.1    
       31304      21.1               31305      21.1               31306      21.1               31307      21.1    
       31308      21.1               31309      21.1               31310      21.1               31311      21.1    
       31312      21.1               31313      21.1               31314      21.1               31315      21.1    
       31316      21.1               31317      21.1               31318      21.1               31319      21.1    
       31320      21.1               31321      21.1               31322      21.1               31323      21.1    
       31324      21.1               31325      21.1               31326      21.1               31327      21.1    
       31328      21.1               31329      21.1               31330      21.1               31331      21.1    
       31332      21.1               31333      21.1               31334      21.1               31335      21.1    
       31336      21.1               31337      21.1               31338      21.1               31339      21.1    
       31340      21.1               31341      21.1               31342      21.1               31343      21.1    
       31344      21.1               31345      21.1               31346      21.1               31347      21.1    
       31348      21.1               31349      21.1               31350      21.1               31351      21.1    
       31352      21.1               31353      21.1               31354      21.1               31355      21.1    
       31356      21.1               31357      21.1               31358      21.1               31359      21.1    
       31360      21.1               31361      21.1               31362      21.1               31363      21.1    
       31364      21.1               31365      21.1               31366      21.1               31367      21.1    
       31368      21.1               31369      21.1               31370      21.1               31371      21.1    
       31372      21.1               31373      21.1               31374      21.1               31375      21.1    
       31376      21.1               31377      21.1               31378      21.1               31379      21.1    
       31380      21.1               31381      21.1               31382      21.1               31383      21.1    
       31384      21.1               31385      21.1               31386      21.1               31387      21.1    
       31388      21.1               31389      21.1               31390      21.1               31391      21.1    
       31392      21.1               31393      21.1               31394      21.1               31395      21.1    
       33185      21.1               33201      21.1               33217      21.1               33233      21.1    
       33241      21.1               33249      21.1               33257      21.1               33265      21.1    
       33273      21.1               33277      21.1               33281      21.1               33285      21.1    
       33289      21.1               33293      21.1               33295      21.1               33297      21.1    
       33299      21.1               33301      21.1               33303      21.1               33305      21.1    
       33307      21.1               33309      21.1               33311      21.1               33312      21.1    
       33313      21.1               33314      21.1               33315      21.1               33316      21.1    
       33317      21.1               33318      21.1               33319      21.1               33320      21.1    
       33321      21.1               33322      21.1               33323      21.1               33324      21.1    
       33325      21.1               33326      21.1               33327      21.1               33328      21.1    
       33329      21.1               33330      21.1               33331      21.1               33332      21.1    
       33333      21.1               33334      21.1               33335      21.1               33336      21.1    
       33337      21.1               33338      21.1               33339      21.1               33340      21.1    
       33341      21.1               33342      21.1               33343      21.1               33344      21.1    
[...]
     1376577      21.1             1376609      21.1             1376641      21.1             1376673      21.1    
     1376705      21.1             1376737      21.1             1376769      21.1             1376801      21.1    
     1376833      21.1             1376865      21.1             1376897      21.1             1376929      21.1    
     1376961      21.1             1376993      21.1             1377025      21.1             1377057      21.1    
     1377089      21.1             1377121      21.1             1377153      21.1             1377185      21.1    
     1377217      21.1             1377249      21.1             1377281      21.1             1377313      21.1    
     1377345      21.1             1377377      21.1             1377409      21.1             1377441      21.1    
     1377473      21.1             1377505      21.1             1377537      21.1             1377569      21.1    
     1377601      21.1             1377633      21.1             1377665      21.1             1377697      21.1    
     1377729      21.1             1377761      21.1             1377793      21.1             1377825      21.1    
     1377857      21.1             1441793      21.1             1441825      21.1             1441857      21.1    
     1441889      21.1             1441921      21.1             1441953      21.1             1441985      21.1    
     1442017      21.1             1442049      21.1             1442081      21.1             1442113      21.1    
     1442145      21.1             1442177      21.1             1442209      21.1             1442241      21.1    
     1442273      21.1             1442305      21.1             1442337      21.1             1442369      21.1    
     1442401      21.1             1442433      21.1             1442465      21.1             1442497      21.1    
     1442529      21.1             1442561      21.1             1442593      21.1             1442625      21.1    
     1442657      21.1             1442689      21.1             1442721      21.1             1442753      21.1    
     1442785      21.1             1442817      21.1             1442849      21.1             1442881      21.1    
     1442913      21.1             1442945      21.1             1442977      21.1             1443009      21.1    
     1443041      21.1             1443073      21.1             1443105      21.1             1443137      21.1    
     1443169      21.1             1443201      21.1             1443233      21.1             1443265      21.1    
     1443297      21.1             1443329      21.1             1443361      21.1             1443393      21.1    
     1507329      21.1             1507361      21.1             1507393      21.1             1507425      21.1    
     1507457      21.1             1507489      21.1             1507521      21.1             1507553      21.1    
     1507585      21.1             1507617      21.1             1507649      21.1             1507681      21.1    
     1507713      21.1             1507745      21.1             1507777      21.1             1507809      21.1    
     1507841      21.1             1507873      21.1             1507905      21.1             1507937      21.1    
     1507969      21.1             1508001      21.1             1508033      21.1             1508065      21.1    
     1508097      21.1             1508129      21.1             1508161      21.1             1508193      21.1    
     1508225      21.1             1508257      21.1             1508289      21.1             1508321      21.1    
     1508353      21.1             1508385      21.1             1508417      21.1             1508449      21.1    
     1508481      21.1             1508513      21.1             1508545      21.1             1508577      21.1    
     1508609      21.1             1508641      21.1             1508673      21.1             1508705      21.1    
     1508737      21.1             1508769      21.1             1508801      21.1             1508833      21.1    
     1508865      21.1             1508897      21.1             1508929      21.1             1572865      21.1    
     1572897      21.1             1572929      21.1             1572961      21.1             1572993      21.1    
     1573025      21.1             1573057      21.1             1573089      21.1             1573121      21.1    
     1573153      21.1             1573185      21.1             1573217      21.1             1573249      21.1    
     1573281      21.1             1573313      21.1             1573345      21.1             1573377      21.1    
     1573409      21.1             1573441      21.1             1573473      21.1             1573505      21.1    
     1573537      21.1             1573569      21.1             1573601      21.1             1573633      21.1    
     1573665      21.1             1573697      21.1             1573729      21.1             1573761      21.1    
     1573793      21.1             1573825      21.1             1573857      21.1             1573889      21.1    
     1573921      21.1             1573953      21.1             1573985      21.1             1574017      21.1    
     1574049      21.1             1574081      21.1             1574113      21.1             1574145      21.1    
     1574177      21.1             1574209      21.1             1574241      21.1             1574273      21.1    
     1574305      21.1             1574337      21.1             1574369      21.1             1574401      21.1    
     1574433      21.1             1574465      21.1             1638401      21.1             1638433      21.1    
     1638465      21.1             1638497      21.1             1638529      21.1             1638561      21.1    
     1638593      21.1             1638625      21.1             1638657      21.1             1638689      21.1    
     1638721      21.1             1638753      21.1             1638785      21.1             1638817      21.1    
     1638849      21.1             1638881      21.1             1638913      21.1             1638945      21.1    
     1638977      21.1             1639009      21.1             1639041      21.1             1639073      21.1    
     1639105      21.1             1639137      21.1             1639169      21.1             1639201      21.1    
     1639233      21.1             1639265      21.1             1639297      21.1             1639329      21.1    
     1639361      21.1             1639393      21.1             1639425      21.1             1639457      21.1    
     1639489      21.1             1639521      21.1             1639553      21.1             1639585      21.1    
     1639617      21.1             1639649      21.1             1639681      21.1             1639713      21.1    
     1639745      21.1             1639777      21.1             1639809      21.1             1639841      21.1    
     1639873      21.1             1639905      21.1             1639937      21.1             1639969      21.1    
     1640001      21.1             1703937      21.1             1703969      21.1             1704001      21.1    
     1704033      21.1             1704065      21.1             1704097      21.1             1704129      21.1    
     1704161      21.1             1704193      21.1             1704225      21.1             1704257      21.1    
     1704289      21.1             1704321      21.1             1704353      21.1             1704385      21.1    
     1704417      21.1             1704449      21.1             1704481      21.1             1704513      21.1    
     1704545      21.1             1704577      21.1             1704609      21.1             1704641      21.1    
     1704673      21.1             1704705      21.1             1704737      21.1             1704769      21.1    
     1704801      21.1             1704833      21.1             1704865      21.1             1704897      21.1    
     1704929      21.1             1704961      21.1             1704993      21.1             1705025      21.1    
     1705057      21.1             1705089      21.1             1705121      21.1             1705153      21.1    
     1705185      21.1             1705217      21.1             1705249      21.1             1705281      21.1    
     1705313      21.1             1705345      21.1             1705377      21.1             1705409      21.1    
     1705441      21.1             1705473      21.1             1705505      21.1             1705537      21.1    
     1769473      21.1             1769505      21.1             1769537      21.1             1769569      21.1    
     1769601      21.1             1769633      21.1             1769665      21.1             1769697      21.1    
     1769729      21.1             1769761      21.1             1769793      21.1             1769825      21.1    
     1769857      21.1             1769889      21.1             1769921      21.1             1769953      21.1    
     1769985      21.1             1770017      21.1             1770049      21.1             1770081      21.1    
     1770113      21.1             1770145      21.1             1770177      21.1             1770209      21.1    
     1770241      21.1             1770273      21.1             1770305      21.1             1770337      21.1    
     1770369      21.1             1770401      21.1             1770433      21.1             1770465      21.1    
     1770497      21.1             1770529      21.1             1770561      21.1             1770593      21.1    
     1770625      21.1             1770657      21.1             1770689      21.1             1770721      21.1    
     1770753      21.1             1770785      21.1             1770817      21.1             1770849      21.1    
     1770881      21.1             1770913      21.1             1770945      21.1             1770977      21.1    
     1771009      21.1             1771041      21.1             1771073      21.1             1835009      21.1    
     1835041      21.1             1835073      21.1             1835105      21.1             1835137      21.1    
     1835169      21.1             1835201      21.1             1835233      21.1             1835265      21.1    
     1835297      21.1             1835329      21.1             1835361      21.1             1835393      21.1    
     1835425      21.1             1835457      21.1             1835489      21.1             1835521      21.1    
     1835553      21.1             1835585      21.1             1835617      21.1             1835649      21.1    
     1835681      21.1             1835713      21.1             1835745      21.1             1835777      21.1    
     1835809      21.1             1835841      21.1             1835873      21.1             1835905      21.1    
     1835937      21.1             1835969      21.1             1836001      21.1             1836033      21.1    
     1836065      21.1             1836097      21.1             1836129      21.1             1836161      21.1    
     1836193      21.1             1836225      21.1             1836257      21.1             1836289      21.1    
     1836321      21.1             1836353      21.1             1836385      21.1             1836417      21.1    
     1836449      21.1             1836481      21.1             1836513      21.1             1836545      21.1    
     1836577      21.1             1836609      21.1             1900545      21.1             1900577      21.1    
     1900609      21.1             1900641      21.1             1900673      21.1             1900705      21.1    
     1900737      21.1             1900769      21.1             1900801      21.1             1900833      21.1    
     1900865      21.1             1900897      21.1             1900929      21.1             1900961      21.1    
     1900993      21.1             1901025      21.1             1901057      21.1             1901089      21.1    
     1901121      21.1             1901153      21.1             1901185      21.1             1901217      21.1    
     1901249      21.1             1901281      21.1             1901313      21.1             1901345      21.1    
     1901377      21.1             1901409      21.1             1901441      21.1             1901473      21.1    
     1901505      21.1             1901537      21.1             1901569      21.1             1901601      21.1    
     1901633      21.1             1901665      21.1             1901697      21.1             1901729      21.1    
     1901761      21.1             1901793      21.1             1901825      21.1             1901857      21.1    
     1901889      21.1             1901921      21.1             1901953      21.1             1901985      21.1    
     1902017      21.1             1902049      21.1             1902081      21.1             1902113      21.1    
     1902145      21.1             1966081      21.1             1966113      21.1             1966145      21.1    
     1966177      21.1             1966209      21.1             1966241      21.1             1966273      21.1    
     1966305      21.1             1966337      21.1             1966369      21.1             1966401      21.1    
     1966433      21.1             1966465      21.1             1966497      21.1             1966529      21.1    
     1966561      21.1             1966593      21.1             1966625      21.1             1966657      21.1    
     1966689      21.1             1966721      21.1             1966753      21.1             1966785      21.1    
     1966817      21.1             1966849      21.1             1966881      21.1             1966913      21.1    
     1966945      21.1             1966977      21.1             1967009      21.1             1967041      21.1    
     1967073      21.1             1967105      21.1             1967137      21.1             1967169      21.1    
     1967201      21.1             1967233      21.1             1967265      21.1             1967297      21.1    
     1967329      21.1             1967361      21.1             1967393      21.1             1967425      21.1    
     1967457      21.1             1967489      21.1             1967521      21.1             1967553      21.1    
     1967585      21.1             1967617      21.1             1967649      21.1             1967681      21.1    



                            P R O B L E M   S I Z E


          NUMBER OF ELEMENTS IS                                  7764
          NUMBER OF NODES IS                                     8060
          NUMBER OF NODES DEFINED BY THE USER                    8060
          TOTAL NUMBER OF VARIABLES IN THE MODEL                 8060
          (DEGREES OF FREEDOM PLUS MAX NO. OF ANY LAGRANGE MULTIPLIER
           VARIABLES. INCLUDE *PRINT,SOLVE=YES TO GET THE ACTUAL NUMBER.)



                              END OF USER INPUT PROCESSING



     JOB TIME SUMMARY
       USER TIME (SEC)      =   20.800    
       SYSTEM TIME (SEC)    =   12.900    
       TOTAL CPU TIME (SEC) =   33.700    
       WALLCLOCK TIME (SEC) =         35
1

   Abaqus 3DEXPERIENCE R2018x                                  Date 07-Nov-2023   Time 11:23:39
   For use by AALTO UNIVERSITY under license from Dassault Systemes or its subsidiary.

     traction Hydrogen                                                                         STEP    1  INCREMENT    1
                                                                                          TIME COMPLETED IN THIS STEP   0.00    


                        S T E P       1     T R A N S I E N T   M A S S   D I F F U S I O N


                                                                                          

     AUTOMATIC TIME CONTROL WITH -
          A SUGGESTED INITIAL TIME INCREMENT OF                 10.0    
          AND A TOTAL TIME PERIOD OF                            600.    
          THE MINIMUM TIME INCREMENT ALLOWED IS                6.000E-03
          THE MAXIMUM TIME INCREMENT ALLOWED IS                 10.0    

     THE SIZE OF THE TIME INCREMENT IS CONTROLLED BY -
          THE NORMALIZED CONCENTRATION CHANGE PER INCREMENT NOT EXCEEDING   0.300    

          UNSYMMETRIC MATRIX STORAGE AND SOLUTION WILL BE USED
  
                   M E M O R Y   E S T I M A T E
  
 PROCESS      FLOATING PT       MINIMUM MEMORY        MEMORY TO
              OPERATIONS           REQUIRED          MINIMIZE I/O
             PER ITERATION           (MB)               (MB)
  
     1          2.40E+07               21                 36
  
 NOTE:
      (1) SINCE ABAQUS DOES NOT PRE-ALLOCATE MEMORY AND ONLY ALLOCATES MEMORY AS NEEDED DURING THE ANALYSIS,
          THE MEMORY REQUIREMENT PRINTED HERE CAN ONLY BE VIEWED AS A GENERAL GUIDELINE BASED ON THE BEST
          KNOWLEDGE AVAILABLE AT THE BEGINNING OF A STEP BEFORE THE SOLUTION PROCESS HAS BEGUN.
      (2) THE ESTIMATE IS NORMALLY UPDATED AT THE BEGINNING OF EVERY STEP. IT IS THE MAXIMUM VALUE OF THE
          ESTIMATE FROM THE CURRENT STEP TO THE LAST STEP OF THE ANALYSIS, WITH UNSYMMETRIC SOLUTION TAKEN
          INTO ACCOUNT IF APPLICABLE. 
      (3) SINCE THE ESTIMATE IS BASED ON THE ACTIVE DEGREES OF FREEDOM IN THE FIRST ITERATION OF THE 
          CURRENT STEP, THE MEMORY ESTIMATE MIGHT BE SIGNIFICANTLY DIFFERENT THAN ACTUAL USAGE FOR 
          PROBLEMS WITH SUBSTANTIAL CHANGES IN ACTIVE DEGREES OF FREEDOM BETWEEN STEPS (OR EVEN WITHIN
          THE SAME STEP). EXAMPLES ARE: PROBLEMS WITH SIGNIFICANT CONTACT CHANGES, PROBLEMS WITH MODEL
          CHANGE, PROBLEMS WITH BOTH STATIC STEP AND STEADY STATE DYNAMIC PROCEDURES WHERE ACOUSTIC 
          ELEMENTS WILL ONLY BE ACTIVATED IN THE STEADY STATE DYNAMIC STEPS.
      (4) FOR MULTI-PROCESS EXECUTION, THE ESTIMATED VALUE OF FLOATING POINT OPERATIONS FOR EACH PROCESS
          IS BASED ON AN INITIAL SCHEDULING OF OPERATIONS AND MIGHT NOT REFLECT THE ACTUAL FLOATING 
          POINT OPERATIONS COMPLETED ON EACH PROCESS. OPERATIONS ARE DYNAMICALLY BALANCED DURING EXECUTION, 
          SO THE ACTUAL BALANCE OF OPERATIONS BETWEEN PROCESSES IS EXPECTED TO BE BETTER THAN THE ESTIMATE
          PRINTED HERE.
      (5) THE UPPER LIMIT OF MEMORY THAT CAN BE ALLOCATED BY ABAQUS WILL IN GENERAL DEPEND ON THE VALUE OF
          THE "MEMORY" PARAMETER AND THE AMOUNT OF PHYSICAL MEMORY AVAILABLE ON THE MACHINE. PLEASE SEE
          THE "ABAQUS ANALYSIS USER'S MANUAL" FOR MORE DETAILS. THE ACTUAL USAGE OF MEMORY AND OF DISK
          SPACE FOR SCRATCH DATA WILL DEPEND ON THIS UPPER LIMIT AS WELL AS THE MEMORY REQUIRED TO MINIMIZE
          I/O. IF THE MEMORY UPPER LIMIT IS GREATER THAN THE MEMORY REQUIRED TO MINIMIZE I/O, THEN THE ACTUAL
          MEMORY USAGE WILL BE CLOSE TO THE ESTIMATED "MEMORY TO MINIMIZE I/O" VALUE, AND THE SCRATCH DISK
          USAGE WILL BE CLOSE-TO-ZERO; OTHERWISE, THE ACTUAL MEMORY USED WILL BE CLOSE TO THE PREVIOUSLY
          MENTIONED MEMORY LIMIT, AND THE SCRATCH DISK USAGE WILL BE ROUGHLY PROPORTIONAL TO THE DIFFERENCE
          BETWEEN THE ESTIMATED "MEMORY TO MINIMIZE I/O" AND THE MEMORY UPPER LIMIT. HOWEVER ACCURATE
          ESTIMATE OF THE SCRATCH DISK SPACE IS NOT POSSIBLE.
      (6) USING "*RESTART, WRITE" CAN GENERATE A LARGE AMOUNT OF DATA WRITTEN IN THE WORK DIRECTORY.


          THE ANALYSIS HAS BEEN COMPLETED



                              ANALYSIS COMPLETE
                              WITH      5 WARNING MESSAGES ON THE DAT FILE



     JOB TIME SUMMARY
       USER TIME (SEC)      =   146.10    
       SYSTEM TIME (SEC)    =   26.700    
       TOTAL CPU TIME (SEC) =   172.80    
       WALLCLOCK TIME (SEC) =        224
