1

   Abaqus 3DEXPERIENCE R2018x                                  Date 08-Nov-2023   Time 14:38:11
   For use by AALTO UNIVERSITY under license from Dassault Systemes or its subsidiary.

 traction Hydrogen                                                               
                                                                                 
 STEP    1     INCREMENT     1     STEP TIME    0.00    


                        S T E P       1     S T A T I C   A N A L Y S I S


                                                                                          

     AUTOMATIC TIME CONTROL WITH -
          A SUGGESTED INITIAL TIME INCREMENT OF                0.100    
          AND A TOTAL TIME PERIOD OF                            1.00    
          THE MINIMUM TIME INCREMENT ALLOWED IS                1.000E-05
          THE MAXIMUM TIME INCREMENT ALLOWED IS                0.100    

     LINEAR EQUATION SOLVER TYPE         DIRECT SPARSE

 CONVERGENCE TOLERANCE PARAMETERS FOR FORCE    
     CRITERION FOR RESIDUAL FORCE     FOR A NONLINEAR PROBLEM          5.000E-03
     CRITERION FOR DISP.    CORRECTION IN A NONLINEAR PROBLEM          1.000E-02
     INITIAL VALUE OF TIME AVERAGE FORCE                               1.000E-02
     AVERAGE FORCE     IS TIME AVERAGE FORCE    
     ALTERNATE CRIT. FOR RESIDUAL FORCE     FOR A NONLINEAR PROBLEM    2.000E-02
     CRITERION FOR ZERO FORCE     RELATIVE TO TIME AVRG. FORCE         1.000E-05
     CRITERION FOR RESIDUAL FORCE     WHEN THERE IS ZERO FLUX          1.000E-05
     CRITERION FOR DISP.    CORRECTION WHEN THERE IS ZERO FLUX         1.000E-03
     CRITERION FOR RESIDUAL FORCE     FOR A LINEAR INCREMENT           1.000E-08
     FIELD CONVERSION RATIO                                             1.00    
     CRITERION FOR ZERO FORCE     REL. TO TIME AVRG. MAX. FORCE        1.000E-05
     CRITERION FOR ZERO DISP.    RELATIVE TO CHARACTERISTIC LENGTH     1.000E-08

 CONVERGENCE TOLERANCE PARAMETERS FOR MOMENT   
     CRITERION FOR RESIDUAL MOMENT    FOR A NONLINEAR PROBLEM          5.000E-03
     CRITERION FOR ROTATION CORRECTION IN A NONLINEAR PROBLEM          1.000E-02
     INITIAL VALUE OF TIME AVERAGE MOMENT                              1.000E-02
     AVERAGE MOMENT    IS TIME AVERAGE MOMENT   
     ALTERNATE CRIT. FOR RESIDUAL MOMENT    FOR A NONLINEAR PROBLEM    2.000E-02
     CRITERION FOR ZERO MOMENT    RELATIVE TO TIME AVRG. MOMENT        1.000E-05
     CRITERION FOR RESIDUAL MOMENT    WHEN THERE IS ZERO FLUX          1.000E-05
     CRITERION FOR ROTATION CORRECTION WHEN THERE IS ZERO FLUX         1.000E-03
     CRITERION FOR RESIDUAL MOMENT    FOR A LINEAR INCREMENT           1.000E-08
     FIELD CONVERSION RATIO                                             1.00    
     CRITERION FOR ZERO MOMENT    REL. TO TIME AVRG. MAX. MOMENT       1.000E-05

     VOLUMETRIC STRAIN COMPATIBILITY TOLERANCE FOR HYBRID SOLIDS       1.000E-05
     AXIAL STRAIN COMPATIBILITY TOLERANCE FOR HYBRID BEAMS             1.000E-05
     TRANS. SHEAR STRAIN COMPATIBILITY TOLERANCE FOR HYBRID BEAMS      1.000E-05
     SOFT CONTACT CONSTRAINT COMPATIBILITY TOLERANCE FOR P>P0          5.000E-03
     SOFT CONTACT CONSTRAINT COMPATIBILITY TOLERANCE FOR P=0.0         0.100    
     CONTACT FORCE ERROR TOLERANCE FOR CONVERT SDI=YES                 1.00    
     DISPLACEMENT COMPATIBILITY TOLERANCE FOR DCOUP ELEMENTS           1.000E-05
     ROTATION COMPATIBILITY TOLERANCE FOR DCOUP ELEMENTS               1.000E-05

 EQUILIBRIUM WILL BE CHECKED FOR SEVERE DISCONTINUITY ITERATIONS

 TIME INCREMENTATION CONTROL PARAMETERS:
     FIRST EQUILIBRIUM ITERATION FOR CONSECUTIVE DIVERGENCE CHECK              4
     EQUILIBRIUM ITERATION AT WHICH LOG. CONVERGENCE RATE CHECK BEGINS         8
     EQUILIBRIUM ITERATION AFTER WHICH ALTERNATE RESIDUAL IS USED              9
     MAXIMUM EQUILIBRIUM ITERATIONS ALLOWED                                   16
     EQUILIBRIUM ITERATION COUNT FOR CUT-BACK IN NEXT INCREMENT               10
     MAXIMUM EQUILIB. ITERS IN TWO INCREMENTS FOR TIME INCREMENT INCREASE      4
     MAXIMUM ITERATIONS FOR SEVERE DISCONTINUITIES                            50
     MAXIMUM ATTEMPTS ALLOWED IN AN INCREMENT                                  5
     MAXIMUM DISCON. ITERS IN TWO INCREMENTS FOR TIME INCREMENT INCREASE      50
     MAXIMUM CONTACT AUGMENTATIONS FOR *SURFACE BEHAVIOR,AUGMENTED LAGRANGE   50
     CUT-BACK FACTOR AFTER DIVERGENCE                                 0.2500    
     CUT-BACK FACTOR FOR TOO SLOW CONVERGENCE                         0.5000    
     CUT-BACK FACTOR AFTER TOO MANY EQUILIBRIUM ITERATIONS            0.7500    
     CUT-BACK FACTOR AFTER TOO MANY SEVERE DISCONTINUITY ITERATIONS   0.2500    
     CUT-BACK FACTOR AFTER PROBLEMS IN ELEMENT ASSEMBLY               0.2500    
     INCREASE FACTOR AFTER TWO INCREMENTS THAT CONVERGE QUICKLY        1.500    
     MAX. TIME INCREMENT INCREASE FACTOR ALLOWED                       1.500    
     MAX. TIME INCREMENT INCREASE FACTOR ALLOWED (DYNAMICS)            1.250    
     MAX. TIME INCREMENT INCREASE FACTOR ALLOWED (DIFFUSION)           2.000    
     MINIMUM TIME INCREMENT RATIO FOR EXTRAPOLATION TO OCCUR          0.1000    
     MAX. RATIO OF TIME INCREMENT TO STABILITY LIMIT                   1.000    
     FRACTION OF STABILITY LIMIT FOR NEW TIME INCREMENT               0.9500    
     TIME INCREMENT INCREASE FACTOR BEFORE A TIME POINT                1.000    
     GLOBAL STABILIZATION CONTROL IS NOT USED

          PRINT OF INCREMENT NUMBER, TIME, ETC., EVERY    1  INCREMENTS

     THE MAXIMUM NUMBER OF INCREMENTS IN THIS STEP IS                     500

     LINEAR EXTRAPOLATION WILL BE USED

     CHARACTERISTIC ELEMENT LENGTH     0.116    

     DETAILS REGARDING ACTUAL SOLUTION WAVEFRONT REQUESTED

     DETAILED OUTPUT OF DIAGNOSTICS TO DATABASE REQUESTED

     PRINT OF INCREMENT NUMBER, TIME, ETC., TO THE MESSAGE FILE EVERY     1  INCREMENTS

     COLLECTING MODEL CONSTRAINT INFORMATION FOR OVERCONSTRAINT CHECKS

     COLLECTING STEP CONSTRAINT INFORMATION FOR OVERCONSTRAINT CHECKS


  INCREMENT     1 STARTS. ATTEMPT NUMBER  1, TIME INCREMENT  0.100    

 ***WARNING: THERE ARE 508 UNCONNECTED REGIONS IN THE MODEL.

  NUMBER OF EQUATIONS =     16235     NUMBER OF RHS =    1
  NUMBER OF FLOATING PT. OPERATIONS =  9.71E+07

     CHECK POINT   START OF SOLVER    

     CHECK POINT  END OF SOLVER       

       ELAPSED USER TIME (SEC)      =  0.10000    
       ELAPSED SYSTEM TIME (SEC)    =   0.0000    
       ELAPSED TOTAL CPU TIME (SEC) =  0.10000    
       ELAPSED WALLCLOCK TIME (SEC) =          0

               CONVERGENCE CHECKS FOR EQUILIBRIUM ITERATION     1


 AVERAGE FORCE                       23.8       TIME AVG. FORCE        23.8    
 LARGEST RESIDUAL FORCE             4.538E-11   AT NODE      10817   DOF  1
 LARGEST INCREMENT OF DISP.         2.208E-02   AT NODE    1377857   DOF  2
 LARGEST CORRECTION TO DISP.        2.208E-02   AT NODE    1377857   DOF  2
          THE FORCE     EQUILIBRIUM RESPONSE WAS LINEAR IN THIS INCREMENT

 AVERAGE MOMENT                     1.931E-16   TIME AVG. MOMENT       2.77    
                                                (FROM FORCE     FIELD)
 LARGEST RESIDUAL MOMENT            3.858E-16   AT NODE   50000001   DOF  6
 LARGEST INCREMENT OF ROTATION      1.190E-03   AT NODE   50000001   DOF  6
 LARGEST CORRECTION TO ROTATION     1.190E-03   AT NODE   50000001   DOF  6
          THERE IS ZERO MOMENT    EVERYWHERE

 ITERATION SUMMARY FOR THE INCREMENT:   1 TOTAL ITERATIONS, OF WHICH
   0 ARE SEVERE DISCONTINUITY ITERATIONS AND  1 ARE EQUILIBRIUM ITERATIONS.

 TIME INCREMENT COMPLETED  0.100    ,  FRACTION OF STEP COMPLETED  0.100    
 STEP TIME COMPLETED       0.100    ,  TOTAL TIME COMPLETED        0.100    


  INCREMENT     2 STARTS. ATTEMPT NUMBER  1, TIME INCREMENT  0.100    

  NUMBER OF EQUATIONS =     16235     NUMBER OF RHS =    1
  NUMBER OF FLOATING PT. OPERATIONS =  9.71E+07

     CHECK POINT   START OF SOLVER    

     CHECK POINT  END OF SOLVER       

       ELAPSED USER TIME (SEC)      =  0.10000    
       ELAPSED SYSTEM TIME (SEC)    =   0.0000    
       ELAPSED TOTAL CPU TIME (SEC) =  0.10000    
       ELAPSED WALLCLOCK TIME (SEC) =          0

               CONVERGENCE CHECKS FOR EQUILIBRIUM ITERATION     1


 AVERAGE FORCE                       47.9       TIME AVG. FORCE        35.8    
 LARGEST RESIDUAL FORCE             -52.5       AT NODE        641   DOF  1
 LARGEST INCREMENT OF DISP.         2.208E-02   AT NODE    1377857   DOF  2
 LARGEST CORRECTION TO DISP.        2.320E-04   AT NODE        641   DOF  2
          FORCE     EQUILIBRIUM NOT ACHIEVED WITHIN TOLERANCE.

 AVERAGE MOMENT                     2.171E-16   TIME AVG. MOMENT       2.77    
                                                (FROM FORCE     FIELD)
 LARGEST RESIDUAL MOMENT            4.337E-16   AT NODE   50000001   DOF  6
 LARGEST INCREMENT OF ROTATION      1.190E-03   AT NODE   50000001   DOF  6
 LARGEST CORRECTION TO ROTATION    -7.448E-07   AT NODE   50000001   DOF  6
          THERE IS ZERO MOMENT    EVERYWHERE

  NUMBER OF EQUATIONS =     16235     NUMBER OF RHS =    1
  NUMBER OF FLOATING PT. OPERATIONS =  9.71E+07

     CHECK POINT   START OF SOLVER    

     CHECK POINT  END OF SOLVER       

       ELAPSED USER TIME (SEC)      =   0.0000    
       ELAPSED SYSTEM TIME (SEC)    =   0.0000    
       ELAPSED TOTAL CPU TIME (SEC) =   0.0000    
       ELAPSED WALLCLOCK TIME (SEC) =          1

               CONVERGENCE CHECKS FOR EQUILIBRIUM ITERATION     2


 AVERAGE FORCE                       47.9       TIME AVG. FORCE        35.8    
 LARGEST RESIDUAL FORCE             -2.02       AT NODE       4738   DOF  1
 LARGEST INCREMENT OF DISP.         2.208E-02   AT NODE    1377857   DOF  2
 LARGEST CORRECTION TO DISP.        4.271E-05   AT NODE        642   DOF  2
          FORCE     EQUILIBRIUM NOT ACHIEVED WITHIN TOLERANCE.

 AVERAGE MOMENT                     7.578E-22   TIME AVG. MOMENT       2.77    
                                                (FROM FORCE     FIELD)
 LARGEST RESIDUAL MOMENT            1.516E-21   AT NODE   50000001   DOF  6
 LARGEST INCREMENT OF ROTATION      1.190E-03   AT NODE   50000001   DOF  6
 LARGEST CORRECTION TO ROTATION    -3.340E-08   AT NODE   50000001   DOF  6
          THERE IS ZERO MOMENT    EVERYWHERE

  NUMBER OF EQUATIONS =     16235     NUMBER OF RHS =    1
  NUMBER OF FLOATING PT. OPERATIONS =  9.71E+07

     CHECK POINT   START OF SOLVER    

     CHECK POINT  END OF SOLVER       

       ELAPSED USER TIME (SEC)      =   0.0000    
       ELAPSED SYSTEM TIME (SEC)    =   0.0000    
       ELAPSED TOTAL CPU TIME (SEC) =   0.0000    
       ELAPSED WALLCLOCK TIME (SEC) =          0

               CONVERGENCE CHECKS FOR EQUILIBRIUM ITERATION     3


 AVERAGE FORCE                       47.9       TIME AVG. FORCE        35.8    
 LARGEST RESIDUAL FORCE             9.402E-02   AT NODE      17024   DOF  2
 LARGEST INCREMENT OF DISP.         2.208E-02   AT NODE    1377857   DOF  2
 LARGEST CORRECTION TO DISP.       -4.042E-06   AT NODE       4738   DOF  1
          THE FORCE     EQUILIBRIUM EQUATIONS HAVE CONVERGED

 AVERAGE MOMENT                     4.341E-16   TIME AVG. MOMENT       2.77    
                                                (FROM FORCE     FIELD)
 LARGEST RESIDUAL MOMENT            8.674E-16   AT NODE   50000001   DOF  6
 LARGEST INCREMENT OF ROTATION      1.190E-03   AT NODE   50000001   DOF  6
 LARGEST CORRECTION TO ROTATION    -9.488E-10   AT NODE   50000001   DOF  6
          THERE IS ZERO MOMENT    EVERYWHERE

 ITERATION SUMMARY FOR THE INCREMENT:   3 TOTAL ITERATIONS, OF WHICH
   0 ARE SEVERE DISCONTINUITY ITERATIONS AND  3 ARE EQUILIBRIUM ITERATIONS.

 TIME INCREMENT COMPLETED  0.100    ,  FRACTION OF STEP COMPLETED  0.200    
 STEP TIME COMPLETED       0.200    ,  TOTAL TIME COMPLETED        0.200    


  INCREMENT     3 STARTS. ATTEMPT NUMBER  1, TIME INCREMENT  0.100    

  NUMBER OF EQUATIONS =     16235     NUMBER OF RHS =    1
  NUMBER OF FLOATING PT. OPERATIONS =  9.71E+07

     CHECK POINT   START OF SOLVER    

     CHECK POINT  END OF SOLVER       

       ELAPSED USER TIME (SEC)      =  0.10000    
       ELAPSED SYSTEM TIME (SEC)    =   0.0000    
       ELAPSED TOTAL CPU TIME (SEC) =  0.10000    
       ELAPSED WALLCLOCK TIME (SEC) =          0

               CONVERGENCE CHECKS FOR EQUILIBRIUM ITERATION     1


 AVERAGE FORCE                       71.4       TIME AVG. FORCE        47.7    
 LARGEST RESIDUAL FORCE              26.3       AT NODE        632   DOF  2
 LARGEST INCREMENT OF DISP.         2.208E-02   AT NODE    1377857   DOF  2
 LARGEST CORRECTION TO DISP.        5.729E-04   AT NODE        638   DOF  2
          FORCE     EQUILIBRIUM NOT ACHIEVED WITHIN TOLERANCE.

 AVERAGE MOMENT                     2.170E-16   TIME AVG. MOMENT       4.17    
                                                (FROM FORCE     FIELD)
 LARGEST RESIDUAL MOMENT           -4.335E-16   AT NODE   50000001   DOF  6
 LARGEST INCREMENT OF ROTATION      1.186E-03   AT NODE   50000001   DOF  6
 LARGEST CORRECTION TO ROTATION    -3.496E-06   AT NODE   50000001   DOF  6
          THERE IS ZERO MOMENT    EVERYWHERE

  NUMBER OF EQUATIONS =     16235     NUMBER OF RHS =    1
  NUMBER OF FLOATING PT. OPERATIONS =  9.71E+07

     CHECK POINT   START OF SOLVER    

     CHECK POINT  END OF SOLVER       

       ELAPSED USER TIME (SEC)      =  0.10000    
       ELAPSED SYSTEM TIME (SEC)    =  0.10000    
       ELAPSED TOTAL CPU TIME (SEC) =  0.20000    
       ELAPSED WALLCLOCK TIME (SEC) =          0

               CONVERGENCE CHECKS FOR EQUILIBRIUM ITERATION     2


 AVERAGE FORCE                       71.4       TIME AVG. FORCE        47.7    
 LARGEST RESIDUAL FORCE              2.31       AT NODE       2679   DOF  2
 LARGEST INCREMENT OF DISP.         2.208E-02   AT NODE    1377857   DOF  2
 LARGEST CORRECTION TO DISP.       -6.681E-05   AT NODE        637   DOF  2
          FORCE     EQUILIBRIUM NOT ACHIEVED WITHIN TOLERANCE.

 AVERAGE MOMENT                     4.341E-16   TIME AVG. MOMENT       4.17    
                                                (FROM FORCE     FIELD)
 LARGEST RESIDUAL MOMENT            8.674E-16   AT NODE   50000001   DOF  6
 LARGEST INCREMENT OF ROTATION      1.186E-03   AT NODE   50000001   DOF  6
 LARGEST CORRECTION TO ROTATION    -9.816E-08   AT NODE   50000001   DOF  6
          THERE IS ZERO MOMENT    EVERYWHERE

  NUMBER OF EQUATIONS =     16235     NUMBER OF RHS =    1
  NUMBER OF FLOATING PT. OPERATIONS =  9.71E+07

     CHECK POINT   START OF SOLVER    

     CHECK POINT  END OF SOLVER       

       ELAPSED USER TIME (SEC)      =  0.10000    
       ELAPSED SYSTEM TIME (SEC)    =   0.0000    
       ELAPSED TOTAL CPU TIME (SEC) =  0.10000    
       ELAPSED WALLCLOCK TIME (SEC) =          0

               CONVERGENCE CHECKS FOR EQUILIBRIUM ITERATION     3


 AVERAGE FORCE                       71.4       TIME AVG. FORCE        47.7    
 LARGEST RESIDUAL FORCE             1.767E-02   AT NODE       6782   DOF  1
 LARGEST INCREMENT OF DISP.         2.208E-02   AT NODE    1377857   DOF  2
 LARGEST CORRECTION TO DISP.       -3.362E-06   AT NODE       4734   DOF  2
          THE FORCE     EQUILIBRIUM EQUATIONS HAVE CONVERGED

 AVERAGE MOMENT                     5.958E-23   TIME AVG. MOMENT       4.17    
                                                (FROM FORCE     FIELD)
 LARGEST RESIDUAL MOMENT            1.192E-22   AT NODE   50000001   DOF  6
 LARGEST INCREMENT OF ROTATION      1.186E-03   AT NODE   50000001   DOF  6
 LARGEST CORRECTION TO ROTATION    -3.038E-09   AT NODE   50000001   DOF  6
          THERE IS ZERO MOMENT    EVERYWHERE

 ITERATION SUMMARY FOR THE INCREMENT:   3 TOTAL ITERATIONS, OF WHICH
   0 ARE SEVERE DISCONTINUITY ITERATIONS AND  3 ARE EQUILIBRIUM ITERATIONS.

 TIME INCREMENT COMPLETED  0.100    ,  FRACTION OF STEP COMPLETED  0.300    
 STEP TIME COMPLETED       0.300    ,  TOTAL TIME COMPLETED        0.300    


  INCREMENT     4 STARTS. ATTEMPT NUMBER  1, TIME INCREMENT  0.100    

  NUMBER OF EQUATIONS =     16235     NUMBER OF RHS =    1
  NUMBER OF FLOATING PT. OPERATIONS =  9.71E+07

     CHECK POINT   START OF SOLVER    

     CHECK POINT  END OF SOLVER       

       ELAPSED USER TIME (SEC)      =   0.0000    
       ELAPSED SYSTEM TIME (SEC)    =   0.0000    
       ELAPSED TOTAL CPU TIME (SEC) =   0.0000    
       ELAPSED WALLCLOCK TIME (SEC) =          1

               CONVERGENCE CHECKS FOR EQUILIBRIUM ITERATION     1


 AVERAGE FORCE                       94.2       TIME AVG. FORCE        59.3    
 LARGEST RESIDUAL FORCE              26.6       AT NODE        624   DOF  2
 LARGEST INCREMENT OF DISP.         2.207E-02   AT NODE    1377857   DOF  2
 LARGEST CORRECTION TO DISP.        6.635E-04   AT NODE        633   DOF  2
          FORCE     EQUILIBRIUM NOT ACHIEVED WITHIN TOLERANCE.

 AVERAGE MOMENT                     1.186E-19   TIME AVG. MOMENT       5.55    
                                                (FROM FORCE     FIELD)
 LARGEST RESIDUAL MOMENT            2.372E-19   AT NODE   50000001   DOF  6
 LARGEST INCREMENT OF ROTATION      1.181E-03   AT NODE   50000001   DOF  6
 LARGEST CORRECTION TO ROTATION    -5.281E-06   AT NODE   50000001   DOF  6
          THERE IS ZERO MOMENT    EVERYWHERE

  NUMBER OF EQUATIONS =     16235     NUMBER OF RHS =    1
  NUMBER OF FLOATING PT. OPERATIONS =  9.71E+07

     CHECK POINT   START OF SOLVER    

     CHECK POINT  END OF SOLVER       

       ELAPSED USER TIME (SEC)      =   0.0000    
       ELAPSED SYSTEM TIME (SEC)    =   0.0000    
       ELAPSED TOTAL CPU TIME (SEC) =   0.0000    
       ELAPSED WALLCLOCK TIME (SEC) =          0

               CONVERGENCE CHECKS FOR EQUILIBRIUM ITERATION     2


 AVERAGE FORCE                       94.2       TIME AVG. FORCE        59.3    
 LARGEST RESIDUAL FORCE             -2.32       AT NODE       2672   DOF  2
 LARGEST INCREMENT OF DISP.         2.207E-02   AT NODE    1377857   DOF  2
 LARGEST CORRECTION TO DISP.       -7.819E-05   AT NODE        631   DOF  2
          FORCE     EQUILIBRIUM NOT ACHIEVED WITHIN TOLERANCE.

 AVERAGE MOMENT                     4.341E-16   TIME AVG. MOMENT       5.55    
                                                (FROM FORCE     FIELD)
 LARGEST RESIDUAL MOMENT           -8.674E-16   AT NODE   50000001   DOF  6
 LARGEST INCREMENT OF ROTATION      1.181E-03   AT NODE   50000001   DOF  6
 LARGEST CORRECTION TO ROTATION    -1.325E-07   AT NODE   50000001   DOF  6
          THERE IS ZERO MOMENT    EVERYWHERE

  NUMBER OF EQUATIONS =     16235     NUMBER OF RHS =    1
  NUMBER OF FLOATING PT. OPERATIONS =  9.71E+07

     CHECK POINT   START OF SOLVER    

     CHECK POINT  END OF SOLVER       

       ELAPSED USER TIME (SEC)      =  0.10000    
       ELAPSED SYSTEM TIME (SEC)    =   0.0000    
       ELAPSED TOTAL CPU TIME (SEC) =  0.10000    
       ELAPSED WALLCLOCK TIME (SEC) =          0

               CONVERGENCE CHECKS FOR EQUILIBRIUM ITERATION     3


 AVERAGE FORCE                       94.2       TIME AVG. FORCE        59.3    
 LARGEST RESIDUAL FORCE            -0.116       AT NODE       8818   DOF  2
 LARGEST INCREMENT OF DISP.         2.207E-02   AT NODE    1377857   DOF  2
 LARGEST CORRECTION TO DISP.       -4.946E-06   AT NODE        624   DOF  2
          THE FORCE     EQUILIBRIUM EQUATIONS HAVE CONVERGED

 AVERAGE MOMENT                     1.645E-24   TIME AVG. MOMENT       5.55    
                                                (FROM FORCE     FIELD)
 LARGEST RESIDUAL MOMENT           -3.289E-24   AT NODE   50000001   DOF  6
 LARGEST INCREMENT OF ROTATION      1.181E-03   AT NODE   50000001   DOF  6
 LARGEST CORRECTION TO ROTATION    -6.373E-10   AT NODE   50000001   DOF  6
          THERE IS ZERO MOMENT    EVERYWHERE

 ITERATION SUMMARY FOR THE INCREMENT:   3 TOTAL ITERATIONS, OF WHICH
   0 ARE SEVERE DISCONTINUITY ITERATIONS AND  3 ARE EQUILIBRIUM ITERATIONS.

 TIME INCREMENT COMPLETED  0.100    ,  FRACTION OF STEP COMPLETED  0.400    
 STEP TIME COMPLETED       0.400    ,  TOTAL TIME COMPLETED        0.400    


  INCREMENT     5 STARTS. ATTEMPT NUMBER  1, TIME INCREMENT  0.100    

  NUMBER OF EQUATIONS =     16235     NUMBER OF RHS =    1
  NUMBER OF FLOATING PT. OPERATIONS =  9.71E+07

     CHECK POINT   START OF SOLVER    

     CHECK POINT  END OF SOLVER       

       ELAPSED USER TIME (SEC)      =   0.0000    
       ELAPSED SYSTEM TIME (SEC)    =  0.10000    
       ELAPSED TOTAL CPU TIME (SEC) =  0.10000    
       ELAPSED WALLCLOCK TIME (SEC) =          0

               CONVERGENCE CHECKS FOR EQUILIBRIUM ITERATION     1


 AVERAGE FORCE                       116.       TIME AVG. FORCE        70.7    
 LARGEST RESIDUAL FORCE              34.2       AT NODE        615   DOF  2
 LARGEST INCREMENT OF DISP.         2.207E-02   AT NODE    1377857   DOF  2
 LARGEST CORRECTION TO DISP.        7.193E-04   AT NODE        624   DOF  2
          FORCE     EQUILIBRIUM NOT ACHIEVED WITHIN TOLERANCE.

 AVERAGE MOMENT                     1.302E-15   TIME AVG. MOMENT       6.91    
                                                (FROM FORCE     FIELD)
 LARGEST RESIDUAL MOMENT           -2.602E-15   AT NODE   50000001   DOF  6
 LARGEST INCREMENT OF ROTATION      1.174E-03   AT NODE   50000001   DOF  6
 LARGEST CORRECTION TO ROTATION    -6.585E-06   AT NODE   50000001   DOF  6
          THERE IS ZERO MOMENT    EVERYWHERE

  NUMBER OF EQUATIONS =     16235     NUMBER OF RHS =    1
  NUMBER OF FLOATING PT. OPERATIONS =  9.71E+07

     CHECK POINT   START OF SOLVER    

     CHECK POINT  END OF SOLVER       

       ELAPSED USER TIME (SEC)      =  0.10000    
       ELAPSED SYSTEM TIME (SEC)    =   0.0000    
       ELAPSED TOTAL CPU TIME (SEC) =  0.10000    
       ELAPSED WALLCLOCK TIME (SEC) =          0

               CONVERGENCE CHECKS FOR EQUILIBRIUM ITERATION     2


 AVERAGE FORCE                       116.       TIME AVG. FORCE        70.7    
 LARGEST RESIDUAL FORCE             -2.60       AT NODE        615   DOF  2
 LARGEST INCREMENT OF DISP.         2.207E-02   AT NODE    1377857   DOF  2
 LARGEST CORRECTION TO DISP.        8.472E-05   AT NODE        615   DOF  2
          FORCE     EQUILIBRIUM NOT ACHIEVED WITHIN TOLERANCE.

 AVERAGE MOMENT                     4.341E-16   TIME AVG. MOMENT       6.91    
                                                (FROM FORCE     FIELD)
 LARGEST RESIDUAL MOMENT            8.674E-16   AT NODE   50000001   DOF  6
 LARGEST INCREMENT OF ROTATION      1.174E-03   AT NODE   50000001   DOF  6
 LARGEST CORRECTION TO ROTATION    -1.976E-07   AT NODE   50000001   DOF  6
          THERE IS ZERO MOMENT    EVERYWHERE

  NUMBER OF EQUATIONS =     16235     NUMBER OF RHS =    1
  NUMBER OF FLOATING PT. OPERATIONS =  9.71E+07

     CHECK POINT   START OF SOLVER    

     CHECK POINT  END OF SOLVER       

       ELAPSED USER TIME (SEC)      =   0.0000    
       ELAPSED SYSTEM TIME (SEC)    =   0.0000    
       ELAPSED TOTAL CPU TIME (SEC) =   0.0000    
       ELAPSED WALLCLOCK TIME (SEC) =          0

               CONVERGENCE CHECKS FOR EQUILIBRIUM ITERATION     3


 AVERAGE FORCE                       116.       TIME AVG. FORCE        70.7    
 LARGEST RESIDUAL FORCE            -0.114       AT NODE      10859   DOF  2
 LARGEST INCREMENT OF DISP.         2.207E-02   AT NODE    1377857   DOF  2
 LARGEST CORRECTION TO DISP.       -7.876E-06   AT NODE        615   DOF  2
          THE FORCE     EQUILIBRIUM EQUATIONS HAVE CONVERGED

 AVERAGE MOMENT                     4.341E-16   TIME AVG. MOMENT       6.91    
                                                (FROM FORCE     FIELD)
 LARGEST RESIDUAL MOMENT            8.674E-16   AT NODE   50000001   DOF  6
 LARGEST INCREMENT OF ROTATION      1.174E-03   AT NODE   50000001   DOF  6
 LARGEST CORRECTION TO ROTATION    -4.823E-10   AT NODE   50000001   DOF  6
          THERE IS ZERO MOMENT    EVERYWHERE

 ITERATION SUMMARY FOR THE INCREMENT:   3 TOTAL ITERATIONS, OF WHICH
   0 ARE SEVERE DISCONTINUITY ITERATIONS AND  3 ARE EQUILIBRIUM ITERATIONS.

 TIME INCREMENT COMPLETED  0.100    ,  FRACTION OF STEP COMPLETED  0.500    
 STEP TIME COMPLETED       0.500    ,  TOTAL TIME COMPLETED        0.500    


  INCREMENT     6 STARTS. ATTEMPT NUMBER  1, TIME INCREMENT  0.100    

  NUMBER OF EQUATIONS =     16235     NUMBER OF RHS =    1
  NUMBER OF FLOATING PT. OPERATIONS =  9.71E+07

     CHECK POINT   START OF SOLVER    

     CHECK POINT  END OF SOLVER       

       ELAPSED USER TIME (SEC)      =  0.10000    
       ELAPSED SYSTEM TIME (SEC)    =   0.0000    
       ELAPSED TOTAL CPU TIME (SEC) =  0.10000    
       ELAPSED WALLCLOCK TIME (SEC) =          1

               CONVERGENCE CHECKS FOR EQUILIBRIUM ITERATION     1


 AVERAGE FORCE                       137.       TIME AVG. FORCE        81.7    
 LARGEST RESIDUAL FORCE              46.4       AT NODE        605   DOF  2
 LARGEST INCREMENT OF DISP.         2.207E-02   AT NODE    1377857   DOF  2
 LARGEST CORRECTION TO DISP.        7.328E-04   AT NODE        614   DOF  2
          FORCE     EQUILIBRIUM NOT ACHIEVED WITHIN TOLERANCE.

 AVERAGE MOMENT                     4.339E-16   TIME AVG. MOMENT       8.23    
                                                (FROM FORCE     FIELD)
 LARGEST RESIDUAL MOMENT           -8.670E-16   AT NODE   50000001   DOF  6
 LARGEST INCREMENT OF ROTATION      1.166E-03   AT NODE   50000001   DOF  6
 LARGEST CORRECTION TO ROTATION    -7.390E-06   AT NODE   50000001   DOF  6
          THERE IS ZERO MOMENT    EVERYWHERE

  NUMBER OF EQUATIONS =     16235     NUMBER OF RHS =    1
  NUMBER OF FLOATING PT. OPERATIONS =  9.71E+07

     CHECK POINT   START OF SOLVER    

     CHECK POINT  END OF SOLVER       

       ELAPSED USER TIME (SEC)      =   0.0000    
       ELAPSED SYSTEM TIME (SEC)    =   0.0000    
       ELAPSED TOTAL CPU TIME (SEC) =   0.0000    
       ELAPSED WALLCLOCK TIME (SEC) =          0

               CONVERGENCE CHECKS FOR EQUILIBRIUM ITERATION     2


 AVERAGE FORCE                       137.       TIME AVG. FORCE        81.7    
 LARGEST RESIDUAL FORCE              3.87       AT NODE        601   DOF  2
 LARGEST INCREMENT OF DISP.         2.207E-02   AT NODE    1377857   DOF  2
 LARGEST CORRECTION TO DISP.        1.335E-04   AT NODE        605   DOF  2
          FORCE     EQUILIBRIUM NOT ACHIEVED WITHIN TOLERANCE.

 AVERAGE MOMENT                     4.341E-16   TIME AVG. MOMENT       8.23    
                                                (FROM FORCE     FIELD)
 LARGEST RESIDUAL MOMENT            8.674E-16   AT NODE   50000001   DOF  6
 LARGEST INCREMENT OF ROTATION      1.166E-03   AT NODE   50000001   DOF  6
 LARGEST CORRECTION TO ROTATION    -3.025E-07   AT NODE   50000001   DOF  6
          THERE IS ZERO MOMENT    EVERYWHERE

  NUMBER OF EQUATIONS =     16235     NUMBER OF RHS =    1
  NUMBER OF FLOATING PT. OPERATIONS =  9.71E+07

     CHECK POINT   START OF SOLVER    

     CHECK POINT  END OF SOLVER       

       ELAPSED USER TIME (SEC)      =  0.10000    
       ELAPSED SYSTEM TIME (SEC)    =   0.0000    
       ELAPSED TOTAL CPU TIME (SEC) =  0.10000    
       ELAPSED WALLCLOCK TIME (SEC) =          0

               CONVERGENCE CHECKS FOR EQUILIBRIUM ITERATION     3


 AVERAGE FORCE                       137.       TIME AVG. FORCE        81.7    
 LARGEST RESIDUAL FORCE            -9.257E-02   AT NODE        601   DOF  2
 LARGEST INCREMENT OF DISP.         2.207E-02   AT NODE    1377857   DOF  2
 LARGEST CORRECTION TO DISP.       -7.664E-06   AT NODE        605   DOF  2
          THE FORCE     EQUILIBRIUM EQUATIONS HAVE CONVERGED

 AVERAGE MOMENT                     8.682E-16   TIME AVG. MOMENT       8.23    
                                                (FROM FORCE     FIELD)
 LARGEST RESIDUAL MOMENT           -1.735E-15   AT NODE   50000001   DOF  6
 LARGEST INCREMENT OF ROTATION      1.166E-03   AT NODE   50000001   DOF  6
 LARGEST CORRECTION TO ROTATION    -2.600E-09   AT NODE   50000001   DOF  6
          THERE IS ZERO MOMENT    EVERYWHERE

 ITERATION SUMMARY FOR THE INCREMENT:   3 TOTAL ITERATIONS, OF WHICH
   0 ARE SEVERE DISCONTINUITY ITERATIONS AND  3 ARE EQUILIBRIUM ITERATIONS.

 TIME INCREMENT COMPLETED  0.100    ,  FRACTION OF STEP COMPLETED  0.600    
 STEP TIME COMPLETED       0.600    ,  TOTAL TIME COMPLETED        0.600    


  INCREMENT     7 STARTS. ATTEMPT NUMBER  1, TIME INCREMENT  0.100    

  NUMBER OF EQUATIONS =     16235     NUMBER OF RHS =    1
  NUMBER OF FLOATING PT. OPERATIONS =  9.71E+07

     CHECK POINT   START OF SOLVER    

     CHECK POINT  END OF SOLVER       

       ELAPSED USER TIME (SEC)      =   0.0000    
       ELAPSED SYSTEM TIME (SEC)    =   0.0000    
       ELAPSED TOTAL CPU TIME (SEC) =   0.0000    
       ELAPSED WALLCLOCK TIME (SEC) =          0

               CONVERGENCE CHECKS FOR EQUILIBRIUM ITERATION     1


 AVERAGE FORCE                       155.       TIME AVG. FORCE        92.2    
 LARGEST RESIDUAL FORCE              49.4       AT NODE        593   DOF  2
 LARGEST INCREMENT OF DISP.         2.206E-02   AT NODE    1377857   DOF  2
 LARGEST CORRECTION TO DISP.        7.712E-04   AT NODE        604   DOF  2
          FORCE     EQUILIBRIUM NOT ACHIEVED WITHIN TOLERANCE.

 AVERAGE MOMENT                     1.771E-19   TIME AVG. MOMENT       9.51    
                                                (FROM FORCE     FIELD)
 LARGEST RESIDUAL MOMENT            3.541E-19   AT NODE   50000001   DOF  6
 LARGEST INCREMENT OF ROTATION      1.159E-03   AT NODE   50000001   DOF  6
 LARGEST CORRECTION TO ROTATION    -6.739E-06   AT NODE   50000001   DOF  6
          THERE IS ZERO MOMENT    EVERYWHERE

  NUMBER OF EQUATIONS =     16235     NUMBER OF RHS =    1
  NUMBER OF FLOATING PT. OPERATIONS =  9.71E+07

     CHECK POINT   START OF SOLVER    

     CHECK POINT  END OF SOLVER       

       ELAPSED USER TIME (SEC)      =   0.0000    
       ELAPSED SYSTEM TIME (SEC)    =   0.0000    
       ELAPSED TOTAL CPU TIME (SEC) =   0.0000    
       ELAPSED WALLCLOCK TIME (SEC) =          0

               CONVERGENCE CHECKS FOR EQUILIBRIUM ITERATION     2


 AVERAGE FORCE                       155.       TIME AVG. FORCE        92.2    
 LARGEST RESIDUAL FORCE              10.9       AT NODE        589   DOF  2
 LARGEST INCREMENT OF DISP.         2.206E-02   AT NODE    1377857   DOF  2
 LARGEST CORRECTION TO DISP.        1.484E-04   AT NODE        593   DOF  2
          FORCE     EQUILIBRIUM NOT ACHIEVED WITHIN TOLERANCE.

 AVERAGE MOMENT                     1.379E-20   TIME AVG. MOMENT       9.51    
                                                (FROM FORCE     FIELD)
 LARGEST RESIDUAL MOMENT            2.759E-20   AT NODE   50000001   DOF  6
 LARGEST INCREMENT OF ROTATION      1.159E-03   AT NODE   50000001   DOF  6
 LARGEST CORRECTION TO ROTATION    -6.093E-07   AT NODE   50000001   DOF  6
          THERE IS ZERO MOMENT    EVERYWHERE

  NUMBER OF EQUATIONS =     16235     NUMBER OF RHS =    1
  NUMBER OF FLOATING PT. OPERATIONS =  9.71E+07

     CHECK POINT   START OF SOLVER    

     CHECK POINT  END OF SOLVER       

       ELAPSED USER TIME (SEC)      =  0.10000    
       ELAPSED SYSTEM TIME (SEC)    =   0.0000    
       ELAPSED TOTAL CPU TIME (SEC) =  0.10000    
       ELAPSED WALLCLOCK TIME (SEC) =          0

               CONVERGENCE CHECKS FOR EQUILIBRIUM ITERATION     3


 AVERAGE FORCE                       155.       TIME AVG. FORCE        92.2    
 LARGEST RESIDUAL FORCE            -0.446       AT NODE        589   DOF  2
 LARGEST INCREMENT OF DISP.         2.206E-02   AT NODE    1377857   DOF  2
 LARGEST CORRECTION TO DISP.        2.055E-05   AT NODE        589   DOF  2
          THE FORCE     EQUILIBRIUM EQUATIONS HAVE CONVERGED

 AVERAGE MOMENT                     7.309E-24   TIME AVG. MOMENT       9.51    
                                                (FROM FORCE     FIELD)
 LARGEST RESIDUAL MOMENT           -1.462E-23   AT NODE   50000001   DOF  6
 LARGEST INCREMENT OF ROTATION      1.159E-03   AT NODE   50000001   DOF  6
 LARGEST CORRECTION TO ROTATION     7.159E-10   AT NODE   50000001   DOF  6
          THERE IS ZERO MOMENT    EVERYWHERE

 ITERATION SUMMARY FOR THE INCREMENT:   3 TOTAL ITERATIONS, OF WHICH
   0 ARE SEVERE DISCONTINUITY ITERATIONS AND  3 ARE EQUILIBRIUM ITERATIONS.

 TIME INCREMENT COMPLETED  0.100    ,  FRACTION OF STEP COMPLETED  0.700    
 STEP TIME COMPLETED       0.700    ,  TOTAL TIME COMPLETED        0.700    


  INCREMENT     8 STARTS. ATTEMPT NUMBER  1, TIME INCREMENT  0.100    

  NUMBER OF EQUATIONS =     16235     NUMBER OF RHS =    1
  NUMBER OF FLOATING PT. OPERATIONS =  9.71E+07

     CHECK POINT   START OF SOLVER    

     CHECK POINT  END OF SOLVER       

       ELAPSED USER TIME (SEC)      =   0.0000    
       ELAPSED SYSTEM TIME (SEC)    =   0.0000    
       ELAPSED TOTAL CPU TIME (SEC) =   0.0000    
       ELAPSED WALLCLOCK TIME (SEC) =          0

               CONVERGENCE CHECKS FOR EQUILIBRIUM ITERATION     1


 AVERAGE FORCE                       168.       TIME AVG. FORCE        102.    
 LARGEST RESIDUAL FORCE              171.       AT NODE        632   DOF  2
 LARGEST INCREMENT OF DISP.         2.204E-02   AT NODE    1377857   DOF  2
 LARGEST CORRECTION TO DISP.        5.606E-03   AT NODE        637   DOF  2
          FORCE     EQUILIBRIUM NOT ACHIEVED WITHIN TOLERANCE.

 AVERAGE MOMENT                     1.737E-15   TIME AVG. MOMENT       10.7    
                                                (FROM FORCE     FIELD)
 LARGEST RESIDUAL MOMENT            3.471E-15   AT NODE   50000001   DOF  6
 LARGEST INCREMENT OF ROTATION      1.122E-03   AT NODE   50000001   DOF  6
 LARGEST CORRECTION TO ROTATION    -3.679E-05   AT NODE   50000001   DOF  6
          THERE IS ZERO MOMENT    EVERYWHERE

  NUMBER OF EQUATIONS =     16235     NUMBER OF RHS =    1
  NUMBER OF FLOATING PT. OPERATIONS =  9.71E+07

     CHECK POINT   START OF SOLVER    

     CHECK POINT  END OF SOLVER       

       ELAPSED USER TIME (SEC)      =   0.0000    
       ELAPSED SYSTEM TIME (SEC)    =   0.0000    
       ELAPSED TOTAL CPU TIME (SEC) =   0.0000    
       ELAPSED WALLCLOCK TIME (SEC) =          0

 ***WARNING: THE STRAIN INCREMENT HAS EXCEEDED FIFTY TIMES THE STRAIN TO CAUSE 
             FIRST YIELD AT 3 POINTS

               CONVERGENCE CHECKS FOR EQUILIBRIUM ITERATION     2


 AVERAGE FORCE                       175.       TIME AVG. FORCE        103.    
 LARGEST RESIDUAL FORCE              389.       AT NODE        634   DOF  2
 LARGEST INCREMENT OF DISP.         2.207E-02   AT NODE    1377857   DOF  2
 LARGEST CORRECTION TO DISP.       -1.887E-02   AT NODE        638   DOF  2
          FORCE     EQUILIBRIUM NOT ACHIEVED WITHIN TOLERANCE.

 AVERAGE MOMENT                     1.738E-15   TIME AVG. MOMENT       10.7    
                                                (FROM FORCE     FIELD)
 LARGEST RESIDUAL MOMENT           -3.472E-15   AT NODE   50000001   DOF  6
 LARGEST INCREMENT OF ROTATION      1.180E-03   AT NODE   50000001   DOF  6
 LARGEST CORRECTION TO ROTATION     5.783E-05   AT NODE   50000001   DOF  6
          THERE IS ZERO MOMENT    EVERYWHERE

  NUMBER OF EQUATIONS =     16235     NUMBER OF RHS =    1
  NUMBER OF FLOATING PT. OPERATIONS =  9.71E+07

     CHECK POINT   START OF SOLVER    

     CHECK POINT  END OF SOLVER       

       ELAPSED USER TIME (SEC)      =   0.0000    
       ELAPSED SYSTEM TIME (SEC)    =   0.0000    
       ELAPSED TOTAL CPU TIME (SEC) =   0.0000    
       ELAPSED WALLCLOCK TIME (SEC) =          0

 ***WARNING: THE STRAIN INCREMENT HAS EXCEEDED FIFTY TIMES THE STRAIN TO CAUSE 
             FIRST YIELD AT 9 POINTS

               CONVERGENCE CHECKS FOR EQUILIBRIUM ITERATION     3


 AVERAGE FORCE                       170.       TIME AVG. FORCE        102.    
 LARGEST RESIDUAL FORCE              515.       AT NODE        638   DOF  2
 LARGEST INCREMENT OF DISP.         2.206E-02   AT NODE    1377857   DOF  2
 LARGEST CORRECTION TO DISP.        2.172E-02   AT NODE       2688   DOF  2
          FORCE     EQUILIBRIUM NOT ACHIEVED WITHIN TOLERANCE.

 AVERAGE MOMENT                     4.444E-21   TIME AVG. MOMENT       10.7    
                                                (FROM FORCE     FIELD)
 LARGEST RESIDUAL MOMENT           -8.887E-21   AT NODE   50000001   DOF  6
 LARGEST INCREMENT OF ROTATION      1.180E-03   AT NODE   50000001   DOF  6
 LARGEST CORRECTION TO ROTATION     2.513E-07   AT NODE   50000001   DOF  6
          THERE IS ZERO MOMENT    EVERYWHERE

  NUMBER OF EQUATIONS =     16235     NUMBER OF RHS =    1
  NUMBER OF FLOATING PT. OPERATIONS =  9.71E+07

     CHECK POINT   START OF SOLVER    

     CHECK POINT  END OF SOLVER       

       ELAPSED USER TIME (SEC)      =   0.0000    
       ELAPSED SYSTEM TIME (SEC)    =   0.0000    
       ELAPSED TOTAL CPU TIME (SEC) =   0.0000    
       ELAPSED WALLCLOCK TIME (SEC) =          0
 

 ***WARNING: THE SYSTEM MATRIX HAS 2 NEGATIVE EIGENVALUES.

     NEGATIVE EIGENVALUES MEAN THAT THE SYSTEM MATRIX IS NOT 
     POSITIVE DEFINITE:
     FOR EXAMPLE, A BIFURCATION (BUCKLING) LOAD MAY HAVE BEEN EXCEEDED.

 ***WARNING: THE STRAIN INCREMENT HAS EXCEEDED FIFTY TIMES THE STRAIN TO CAUSE 
             FIRST YIELD AT 140 POINTS

 ***WARNING: THE STRAIN INCREMENT IS SO LARGE THAT THE PROGRAM WILL NOT ATTEMPT 
             THE PLASTICITY CALCULATION AT 2 POINTS
 

 ***NOTE: MATERIAL CALCULATIONS FAILED TO CONVERGE OR WERE NOT ATTEMPTED AT ONE 
          OR MORE POINTS. CONVERGENCE IS JUDGED UNLIKELY.


  INCREMENT     8 STARTS. ATTEMPT NUMBER  2, TIME INCREMENT  2.500E-02

  NUMBER OF EQUATIONS =     16235     NUMBER OF RHS =    1
  NUMBER OF FLOATING PT. OPERATIONS =  9.71E+07

     CHECK POINT   START OF SOLVER    

     CHECK POINT  END OF SOLVER       

       ELAPSED USER TIME (SEC)      =   0.0000    
       ELAPSED SYSTEM TIME (SEC)    =  0.10000    
       ELAPSED TOTAL CPU TIME (SEC) =  0.10000    
       ELAPSED WALLCLOCK TIME (SEC) =          0

               CONVERGENCE CHECKS FOR EQUILIBRIUM ITERATION     1


 AVERAGE FORCE                       159.       TIME AVG. FORCE        101.    
 LARGEST RESIDUAL FORCE             -109.       AT NODE       2689   DOF  1
 LARGEST INCREMENT OF DISP.         5.513E-03   AT NODE    1377857   DOF  2
 LARGEST CORRECTION TO DISP.        3.565E-04   AT NODE        639   DOF  2
          FORCE     EQUILIBRIUM NOT ACHIEVED WITHIN TOLERANCE.

 AVERAGE MOMENT                     6.158E-20   TIME AVG. MOMENT       10.7    
                                                (FROM FORCE     FIELD)
 LARGEST RESIDUAL MOMENT            1.232E-19   AT NODE   50000001   DOF  6
 LARGEST INCREMENT OF ROTATION      2.872E-04   AT NODE   50000001   DOF  6
 LARGEST CORRECTION TO ROTATION    -2.488E-06   AT NODE   50000001   DOF  6
          THERE IS ZERO MOMENT    EVERYWHERE

  NUMBER OF EQUATIONS =     16235     NUMBER OF RHS =    1
  NUMBER OF FLOATING PT. OPERATIONS =  9.71E+07

     CHECK POINT   START OF SOLVER    

     CHECK POINT  END OF SOLVER       

       ELAPSED USER TIME (SEC)      =   0.0000    
       ELAPSED SYSTEM TIME (SEC)    =   0.0000    
       ELAPSED TOTAL CPU TIME (SEC) =   0.0000    
       ELAPSED WALLCLOCK TIME (SEC) =          1

               CONVERGENCE CHECKS FOR EQUILIBRIUM ITERATION     2


 AVERAGE FORCE                       159.       TIME AVG. FORCE        101.    
 LARGEST RESIDUAL FORCE             -4.30       AT NODE       8837   DOF  1
 LARGEST INCREMENT OF DISP.         5.513E-03   AT NODE    1377857   DOF  2
 LARGEST CORRECTION TO DISP.       -9.716E-05   AT NODE       2689   DOF  1
          FORCE     EQUILIBRIUM NOT ACHIEVED WITHIN TOLERANCE.

 AVERAGE MOMENT                     4.086E-22   TIME AVG. MOMENT       10.7    
                                                (FROM FORCE     FIELD)
 LARGEST RESIDUAL MOMENT           -8.172E-22   AT NODE   50000001   DOF  6
 LARGEST INCREMENT OF ROTATION      2.872E-04   AT NODE   50000001   DOF  6
 LARGEST CORRECTION TO ROTATION     2.102E-08   AT NODE   50000001   DOF  6
          THERE IS ZERO MOMENT    EVERYWHERE

  NUMBER OF EQUATIONS =     16235     NUMBER OF RHS =    1
  NUMBER OF FLOATING PT. OPERATIONS =  9.71E+07

     CHECK POINT   START OF SOLVER    

     CHECK POINT  END OF SOLVER       

       ELAPSED USER TIME (SEC)      =  0.10000    
       ELAPSED SYSTEM TIME (SEC)    =   0.0000    
       ELAPSED TOTAL CPU TIME (SEC) =  0.10000    
       ELAPSED WALLCLOCK TIME (SEC) =          0

               CONVERGENCE CHECKS FOR EQUILIBRIUM ITERATION     3


 AVERAGE FORCE                       159.       TIME AVG. FORCE        101.    
 LARGEST RESIDUAL FORCE            -0.462       AT NODE      10880   DOF  2
 LARGEST INCREMENT OF DISP.         5.514E-03   AT NODE    1377857   DOF  2
 LARGEST CORRECTION TO DISP.       -1.786E-05   AT NODE      17023   DOF  2
          THE FORCE     EQUILIBRIUM EQUATIONS HAVE CONVERGED

 AVERAGE MOMENT                     2.084E-21   TIME AVG. MOMENT       10.7    
                                                (FROM FORCE     FIELD)
 LARGEST RESIDUAL MOMENT           -4.169E-21   AT NODE   50000001   DOF  6
 LARGEST INCREMENT OF ROTATION      2.873E-04   AT NODE   50000001   DOF  6
 LARGEST CORRECTION TO ROTATION     9.270E-08   AT NODE   50000001   DOF  6
          THERE IS ZERO MOMENT    EVERYWHERE
          TIME INCREMENT MAY NOW INCREASE TO    3.750E-02

 ITERATION SUMMARY FOR THE INCREMENT:   3 TOTAL ITERATIONS, OF WHICH
   0 ARE SEVERE DISCONTINUITY ITERATIONS AND  3 ARE EQUILIBRIUM ITERATIONS.

 TIME INCREMENT COMPLETED  2.500E-02,  FRACTION OF STEP COMPLETED  0.725    
 STEP TIME COMPLETED       0.725    ,  TOTAL TIME COMPLETED        0.725    


  INCREMENT     9 STARTS. ATTEMPT NUMBER  1, TIME INCREMENT  3.750E-02

  NUMBER OF EQUATIONS =     16235     NUMBER OF RHS =    1
  NUMBER OF FLOATING PT. OPERATIONS =  9.71E+07

     CHECK POINT   START OF SOLVER    

     CHECK POINT  END OF SOLVER       

       ELAPSED USER TIME (SEC)      =  0.10000    
       ELAPSED SYSTEM TIME (SEC)    =   0.0000    
       ELAPSED TOTAL CPU TIME (SEC) =  0.10000    
       ELAPSED WALLCLOCK TIME (SEC) =          0

               CONVERGENCE CHECKS FOR EQUILIBRIUM ITERATION     1


 AVERAGE FORCE                       164.       TIME AVG. FORCE        108.    
 LARGEST RESIDUAL FORCE              40.3       AT NODE       6784   DOF  2
 LARGEST INCREMENT OF DISP.         8.268E-03   AT NODE    1377857   DOF  2
 LARGEST CORRECTION TO DISP.        6.043E-04   AT NODE        636   DOF  2
          FORCE     EQUILIBRIUM NOT ACHIEVED WITHIN TOLERANCE.

 AVERAGE MOMENT                     1.736E-15   TIME AVG. MOMENT       11.7    
                                                (FROM FORCE     FIELD)
 LARGEST RESIDUAL MOMENT           -3.469E-15   AT NODE   50000001   DOF  6
 LARGEST INCREMENT OF ROTATION      4.262E-04   AT NODE   50000001   DOF  6
 LARGEST CORRECTION TO ROTATION    -4.729E-06   AT NODE   50000001   DOF  6
          THERE IS ZERO MOMENT    EVERYWHERE

  NUMBER OF EQUATIONS =     16235     NUMBER OF RHS =    1
  NUMBER OF FLOATING PT. OPERATIONS =  9.71E+07

     CHECK POINT   START OF SOLVER    

     CHECK POINT  END OF SOLVER       

       ELAPSED USER TIME (SEC)      =   0.0000    
       ELAPSED SYSTEM TIME (SEC)    =   0.0000    
       ELAPSED TOTAL CPU TIME (SEC) =   0.0000    
       ELAPSED WALLCLOCK TIME (SEC) =          0

               CONVERGENCE CHECKS FOR EQUILIBRIUM ITERATION     2


 AVERAGE FORCE                       164.       TIME AVG. FORCE        108.    
 LARGEST RESIDUAL FORCE              1.92       AT NODE        578   DOF  2
 LARGEST INCREMENT OF DISP.         8.268E-03   AT NODE    1377857   DOF  2
 LARGEST CORRECTION TO DISP.       -6.021E-05   AT NODE       2686   DOF  1
          FORCE     EQUILIBRIUM NOT ACHIEVED WITHIN TOLERANCE.

 AVERAGE MOMENT                     8.682E-16   TIME AVG. MOMENT       11.7    
                                                (FROM FORCE     FIELD)
 LARGEST RESIDUAL MOMENT            1.735E-15   AT NODE   50000001   DOF  6
 LARGEST INCREMENT OF ROTATION      4.260E-04   AT NODE   50000001   DOF  6
 LARGEST CORRECTION TO ROTATION    -2.343E-07   AT NODE   50000001   DOF  6
          THERE IS ZERO MOMENT    EVERYWHERE

  NUMBER OF EQUATIONS =     16235     NUMBER OF RHS =    1
  NUMBER OF FLOATING PT. OPERATIONS =  9.71E+07

     CHECK POINT   START OF SOLVER    

     CHECK POINT  END OF SOLVER       

       ELAPSED USER TIME (SEC)      =   0.0000    
       ELAPSED SYSTEM TIME (SEC)    =  0.10000    
       ELAPSED TOTAL CPU TIME (SEC) =  0.10000    
       ELAPSED WALLCLOCK TIME (SEC) =          1

               CONVERGENCE CHECKS FOR EQUILIBRIUM ITERATION     3


 AVERAGE FORCE                       164.       TIME AVG. FORCE        108.    
 LARGEST RESIDUAL FORCE             0.359       AT NODE      17023   DOF  1
 LARGEST INCREMENT OF DISP.         8.268E-03   AT NODE    1377857   DOF  2
 LARGEST CORRECTION TO DISP.       -8.315E-06   AT NODE      23166   DOF  2
          THE FORCE     EQUILIBRIUM EQUATIONS HAVE CONVERGED

 AVERAGE MOMENT                     8.682E-16   TIME AVG. MOMENT       11.7    
                                                (FROM FORCE     FIELD)
 LARGEST RESIDUAL MOMENT           -1.735E-15   AT NODE   50000001   DOF  6
 LARGEST INCREMENT OF ROTATION      4.260E-04   AT NODE   50000001   DOF  6
 LARGEST CORRECTION TO ROTATION     3.854E-08   AT NODE   50000001   DOF  6
          THERE IS ZERO MOMENT    EVERYWHERE
          TIME INCREMENT MAY NOW INCREASE TO    5.625E-02

 ITERATION SUMMARY FOR THE INCREMENT:   3 TOTAL ITERATIONS, OF WHICH
   0 ARE SEVERE DISCONTINUITY ITERATIONS AND  3 ARE EQUILIBRIUM ITERATIONS.

 TIME INCREMENT COMPLETED  3.750E-02,  FRACTION OF STEP COMPLETED  0.762    
 STEP TIME COMPLETED       0.762    ,  TOTAL TIME COMPLETED        0.762    


  INCREMENT    10 STARTS. ATTEMPT NUMBER  1, TIME INCREMENT  5.625E-02

  NUMBER OF EQUATIONS =     16235     NUMBER OF RHS =    1
  NUMBER OF FLOATING PT. OPERATIONS =  9.71E+07

     CHECK POINT   START OF SOLVER    

     CHECK POINT  END OF SOLVER       

       ELAPSED USER TIME (SEC)      =   0.0000    
       ELAPSED SYSTEM TIME (SEC)    =   0.0000    
       ELAPSED TOTAL CPU TIME (SEC) =   0.0000    
       ELAPSED WALLCLOCK TIME (SEC) =          1

               CONVERGENCE CHECKS FOR EQUILIBRIUM ITERATION     1


 AVERAGE FORCE                       166.       TIME AVG. FORCE        113.    
 LARGEST RESIDUAL FORCE              163.       AT NODE        626   DOF  2
 LARGEST INCREMENT OF DISP.         1.238E-02   AT NODE    1377857   DOF  2
 LARGEST CORRECTION TO DISP.        5.336E-03   AT NODE        631   DOF  2
          FORCE     EQUILIBRIUM NOT ACHIEVED WITHIN TOLERANCE.

 AVERAGE MOMENT                     8.673E-16   TIME AVG. MOMENT       12.5    
                                                (FROM FORCE     FIELD)
 LARGEST RESIDUAL MOMENT           -1.733E-15   AT NODE   50000001   DOF  6
 LARGEST INCREMENT OF ROTATION      5.962E-04   AT NODE   50000001   DOF  6
 LARGEST CORRECTION TO ROTATION    -4.286E-05   AT NODE   50000001   DOF  6
          THERE IS ZERO MOMENT    EVERYWHERE

  NUMBER OF EQUATIONS =     16235     NUMBER OF RHS =    1
  NUMBER OF FLOATING PT. OPERATIONS =  9.71E+07

     CHECK POINT   START OF SOLVER    

     CHECK POINT  END OF SOLVER       

       ELAPSED USER TIME (SEC)      =   0.0000    
       ELAPSED SYSTEM TIME (SEC)    =   0.0000    
       ELAPSED TOTAL CPU TIME (SEC) =   0.0000    
       ELAPSED WALLCLOCK TIME (SEC) =          0

               CONVERGENCE CHECKS FOR EQUILIBRIUM ITERATION     2


 AVERAGE FORCE                       170.       TIME AVG. FORCE        114.    
 LARGEST RESIDUAL FORCE             -271.       AT NODE        630   DOF  2
 LARGEST INCREMENT OF DISP.         1.239E-02   AT NODE    1377857   DOF  2
 LARGEST CORRECTION TO DISP.       -8.911E-03   AT NODE        633   DOF  2
          FORCE     EQUILIBRIUM NOT ACHIEVED WITHIN TOLERANCE.

 AVERAGE MOMENT                     8.688E-16   TIME AVG. MOMENT       12.5    
                                                (FROM FORCE     FIELD)
 LARGEST RESIDUAL MOMENT           -1.736E-15   AT NODE   50000001   DOF  6
 LARGEST INCREMENT OF ROTATION      6.192E-04   AT NODE   50000001   DOF  6
 LARGEST CORRECTION TO ROTATION     2.300E-05   AT NODE   50000001   DOF  6
          THERE IS ZERO MOMENT    EVERYWHERE

  NUMBER OF EQUATIONS =     16235     NUMBER OF RHS =    1
  NUMBER OF FLOATING PT. OPERATIONS =  9.73E+07

     CHECK POINT   START OF SOLVER    

     CHECK POINT  END OF SOLVER       

       ELAPSED USER TIME (SEC)      =  0.10000    
       ELAPSED SYSTEM TIME (SEC)    =   0.0000    
       ELAPSED TOTAL CPU TIME (SEC) =  0.10000    
       ELAPSED WALLCLOCK TIME (SEC) =          0

 ***WARNING: THE STRAIN INCREMENT HAS EXCEEDED FIFTY TIMES THE STRAIN TO CAUSE 
             FIRST YIELD AT 8 POINTS

               CONVERGENCE CHECKS FOR EQUILIBRIUM ITERATION     3


 AVERAGE FORCE                       169.       TIME AVG. FORCE        114.    
 LARGEST RESIDUAL FORCE              450.       AT NODE        631   DOF  2
 LARGEST INCREMENT OF DISP.         2.159E-02   AT NODE       2684   DOF  2
 LARGEST CORRECTION TO DISP.        1.992E-02   AT NODE       2684   DOF  2
          FORCE     EQUILIBRIUM NOT ACHIEVED WITHIN TOLERANCE.

 AVERAGE MOMENT                     8.679E-16   TIME AVG. MOMENT       12.5    
                                                (FROM FORCE     FIELD)
 LARGEST RESIDUAL MOMENT            1.734E-15   AT NODE   50000001   DOF  6
 LARGEST INCREMENT OF ROTATION      6.341E-04   AT NODE   50000001   DOF  6
 LARGEST CORRECTION TO ROTATION     1.487E-05   AT NODE   50000001   DOF  6
          THERE IS ZERO MOMENT    EVERYWHERE

  NUMBER OF EQUATIONS =     16235     NUMBER OF RHS =    1
  NUMBER OF FLOATING PT. OPERATIONS =  9.70E+07

     CHECK POINT   START OF SOLVER    

     CHECK POINT  END OF SOLVER       

       ELAPSED USER TIME (SEC)      =  0.10000    
       ELAPSED SYSTEM TIME (SEC)    =   0.0000    
       ELAPSED TOTAL CPU TIME (SEC) =  0.10000    
       ELAPSED WALLCLOCK TIME (SEC) =          1
 

 ***WARNING: THE SYSTEM MATRIX HAS 1 NEGATIVE EIGENVALUES.
             EXPLANATIONS ARE SUGGESTED AFTER THE FIRST OCCURRENCE OF THIS MESSAGE.

 ***WARNING: THE STRAIN INCREMENT HAS EXCEEDED FIFTY TIMES THE STRAIN TO CAUSE 
             FIRST YIELD AT 508 POINTS

 ***WARNING: THE STRAIN INCREMENT IS SO LARGE THAT THE PROGRAM WILL NOT ATTEMPT 
             THE PLASTICITY CALCULATION AT 13 POINTS
 

 ***NOTE: MATERIAL CALCULATIONS FAILED TO CONVERGE OR WERE NOT ATTEMPTED AT ONE 
          OR MORE POINTS. CONVERGENCE IS JUDGED UNLIKELY.


  INCREMENT    10 STARTS. ATTEMPT NUMBER  2, TIME INCREMENT  1.406E-02

  NUMBER OF EQUATIONS =     16235     NUMBER OF RHS =    1
  NUMBER OF FLOATING PT. OPERATIONS =  9.75E+07

     CHECK POINT   START OF SOLVER    

     CHECK POINT  END OF SOLVER       

       ELAPSED USER TIME (SEC)      =  0.10000    
       ELAPSED SYSTEM TIME (SEC)    =  0.10000    
       ELAPSED TOTAL CPU TIME (SEC) =  0.20000    
       ELAPSED WALLCLOCK TIME (SEC) =          0

               CONVERGENCE CHECKS FOR EQUILIBRIUM ITERATION     1


 AVERAGE FORCE                       166.       TIME AVG. FORCE        113.    
 LARGEST RESIDUAL FORCE              10.2       AT NODE        576   DOF  2
 LARGEST INCREMENT OF DISP.         3.099E-03   AT NODE    1377857   DOF  2
 LARGEST CORRECTION TO DISP.        3.027E-04   AT NODE        634   DOF  2
          FORCE     EQUILIBRIUM NOT ACHIEVED WITHIN TOLERANCE.

 AVERAGE MOMENT                     8.682E-16   TIME AVG. MOMENT       12.5    
                                                (FROM FORCE     FIELD)
 LARGEST RESIDUAL MOMENT           -1.735E-15   AT NODE   50000001   DOF  6
 LARGEST INCREMENT OF ROTATION      1.567E-04   AT NODE   50000001   DOF  6
 LARGEST CORRECTION TO ROTATION    -3.039E-06   AT NODE   50000001   DOF  6
          THERE IS ZERO MOMENT    EVERYWHERE

  NUMBER OF EQUATIONS =     16235     NUMBER OF RHS =    1
  NUMBER OF FLOATING PT. OPERATIONS =  9.75E+07

     CHECK POINT   START OF SOLVER    

     CHECK POINT  END OF SOLVER       

       ELAPSED USER TIME (SEC)      =  0.10000    
       ELAPSED SYSTEM TIME (SEC)    =   0.0000    
       ELAPSED TOTAL CPU TIME (SEC) =  0.10000    
       ELAPSED WALLCLOCK TIME (SEC) =          0

               CONVERGENCE CHECKS FOR EQUILIBRIUM ITERATION     2


 AVERAGE FORCE                       166.       TIME AVG. FORCE        113.    
 LARGEST RESIDUAL FORCE             -2.21       AT NODE      19070   DOF  2
 LARGEST INCREMENT OF DISP.         3.099E-03   AT NODE    1377857   DOF  2
 LARGEST CORRECTION TO DISP.        4.155E-05   AT NODE        631   DOF  2
          FORCE     EQUILIBRIUM NOT ACHIEVED WITHIN TOLERANCE.

 AVERAGE MOMENT                     1.736E-15   TIME AVG. MOMENT       12.5    
                                                (FROM FORCE     FIELD)
 LARGEST RESIDUAL MOMENT            3.469E-15   AT NODE   50000001   DOF  6
 LARGEST INCREMENT OF ROTATION      1.564E-04   AT NODE   50000001   DOF  6
 LARGEST CORRECTION TO ROTATION    -3.338E-07   AT NODE   50000001   DOF  6
          THERE IS ZERO MOMENT    EVERYWHERE

  NUMBER OF EQUATIONS =     16235     NUMBER OF RHS =    1
  NUMBER OF FLOATING PT. OPERATIONS =  9.75E+07

     CHECK POINT   START OF SOLVER    

     CHECK POINT  END OF SOLVER       

       ELAPSED USER TIME (SEC)      =   0.0000    
       ELAPSED SYSTEM TIME (SEC)    =   0.0000    
       ELAPSED TOTAL CPU TIME (SEC) =   0.0000    
       ELAPSED WALLCLOCK TIME (SEC) =          0

               CONVERGENCE CHECKS FOR EQUILIBRIUM ITERATION     3


 AVERAGE FORCE                       166.       TIME AVG. FORCE        113.    
 LARGEST RESIDUAL FORCE             4.673E-02   AT NODE      39552   DOF  2
 LARGEST INCREMENT OF DISP.         3.099E-03   AT NODE    1377857   DOF  2
 LARGEST CORRECTION TO DISP.       -1.990E-06   AT NODE        633   DOF  2
          THE FORCE     EQUILIBRIUM EQUATIONS HAVE CONVERGED

 AVERAGE MOMENT                     8.682E-16   TIME AVG. MOMENT       12.5    
                                                (FROM FORCE     FIELD)
 LARGEST RESIDUAL MOMENT           -1.735E-15   AT NODE   50000001   DOF  6
 LARGEST INCREMENT OF ROTATION      1.564E-04   AT NODE   50000001   DOF  6
 LARGEST CORRECTION TO ROTATION     3.657E-09   AT NODE   50000001   DOF  6
          THERE IS ZERO MOMENT    EVERYWHERE
          TIME INCREMENT MAY NOW INCREASE TO    2.109E-02

 ITERATION SUMMARY FOR THE INCREMENT:   3 TOTAL ITERATIONS, OF WHICH
   0 ARE SEVERE DISCONTINUITY ITERATIONS AND  3 ARE EQUILIBRIUM ITERATIONS.

 TIME INCREMENT COMPLETED  1.406E-02,  FRACTION OF STEP COMPLETED  0.777    
 STEP TIME COMPLETED       0.777    ,  TOTAL TIME COMPLETED        0.777    


  INCREMENT    11 STARTS. ATTEMPT NUMBER  1, TIME INCREMENT  2.109E-02

  NUMBER OF EQUATIONS =     16235     NUMBER OF RHS =    1
  NUMBER OF FLOATING PT. OPERATIONS =  9.75E+07

     CHECK POINT   START OF SOLVER    

     CHECK POINT  END OF SOLVER       

       ELAPSED USER TIME (SEC)      =   0.0000    
       ELAPSED SYSTEM TIME (SEC)    =   0.0000    
       ELAPSED TOTAL CPU TIME (SEC) =   0.0000    
       ELAPSED WALLCLOCK TIME (SEC) =          0

               CONVERGENCE CHECKS FOR EQUILIBRIUM ITERATION     1


 AVERAGE FORCE                       167.       TIME AVG. FORCE        118.    
 LARGEST RESIDUAL FORCE              28.6       AT NODE      10878   DOF  2
 LARGEST INCREMENT OF DISP.         4.645E-03   AT NODE    1377857   DOF  2
 LARGEST CORRECTION TO DISP.        7.658E-04   AT NODE        631   DOF  2
          FORCE     EQUILIBRIUM NOT ACHIEVED WITHIN TOLERANCE.

 AVERAGE MOMENT                     1.608E-19   TIME AVG. MOMENT       13.2    
                                                (FROM FORCE     FIELD)
 LARGEST RESIDUAL MOMENT            3.216E-19   AT NODE   50000001   DOF  6
 LARGEST INCREMENT OF ROTATION      2.275E-04   AT NODE   50000001   DOF  6
 LARGEST CORRECTION TO ROTATION    -7.062E-06   AT NODE   50000001   DOF  6
          THERE IS ZERO MOMENT    EVERYWHERE

  NUMBER OF EQUATIONS =     16235     NUMBER OF RHS =    1
  NUMBER OF FLOATING PT. OPERATIONS =  9.75E+07

     CHECK POINT   START OF SOLVER    

     CHECK POINT  END OF SOLVER       

       ELAPSED USER TIME (SEC)      =   0.0000    
       ELAPSED SYSTEM TIME (SEC)    =   0.0000    
       ELAPSED TOTAL CPU TIME (SEC) =   0.0000    
       ELAPSED WALLCLOCK TIME (SEC) =          0

               CONVERGENCE CHECKS FOR EQUILIBRIUM ITERATION     2


 AVERAGE FORCE                       167.       TIME AVG. FORCE        118.    
 LARGEST RESIDUAL FORCE             -1.89       AT NODE      41598   DOF  2
 LARGEST INCREMENT OF DISP.         4.645E-03   AT NODE    1377857   DOF  2
 LARGEST CORRECTION TO DISP.        9.002E-05   AT NODE      12927   DOF  2
          FORCE     EQUILIBRIUM NOT ACHIEVED WITHIN TOLERANCE.

 AVERAGE MOMENT                     8.682E-16   TIME AVG. MOMENT       13.2    
                                                (FROM FORCE     FIELD)
 LARGEST RESIDUAL MOMENT           -1.735E-15   AT NODE   50000001   DOF  6
 LARGEST INCREMENT OF ROTATION      2.269E-04   AT NODE   50000001   DOF  6
 LARGEST CORRECTION TO ROTATION    -6.069E-07   AT NODE   50000001   DOF  6
          THERE IS ZERO MOMENT    EVERYWHERE

  NUMBER OF EQUATIONS =     16235     NUMBER OF RHS =    1
  NUMBER OF FLOATING PT. OPERATIONS =  9.75E+07

     CHECK POINT   START OF SOLVER    

     CHECK POINT  END OF SOLVER       

       ELAPSED USER TIME (SEC)      =  0.10000    
       ELAPSED SYSTEM TIME (SEC)    =   0.0000    
       ELAPSED TOTAL CPU TIME (SEC) =  0.10000    
       ELAPSED WALLCLOCK TIME (SEC) =          0

               CONVERGENCE CHECKS FOR EQUILIBRIUM ITERATION     3


 AVERAGE FORCE                       167.       TIME AVG. FORCE        118.    
 LARGEST RESIDUAL FORCE             0.492       AT NODE      12925   DOF  2
 LARGEST INCREMENT OF DISP.         4.645E-03   AT NODE    1377857   DOF  2
 LARGEST CORRECTION TO DISP.       -3.304E-06   AT NODE        619   DOF  2
          THE FORCE     EQUILIBRIUM EQUATIONS HAVE CONVERGED

 AVERAGE MOMENT                     1.736E-15   TIME AVG. MOMENT       13.2    
                                                (FROM FORCE     FIELD)
 LARGEST RESIDUAL MOMENT            3.469E-15   AT NODE   50000001   DOF  6
 LARGEST INCREMENT OF ROTATION      2.269E-04   AT NODE   50000001   DOF  6
 LARGEST CORRECTION TO ROTATION     9.454E-09   AT NODE   50000001   DOF  6
          THERE IS ZERO MOMENT    EVERYWHERE
          TIME INCREMENT MAY NOW INCREASE TO    3.164E-02

 ITERATION SUMMARY FOR THE INCREMENT:   3 TOTAL ITERATIONS, OF WHICH
   0 ARE SEVERE DISCONTINUITY ITERATIONS AND  3 ARE EQUILIBRIUM ITERATIONS.

 TIME INCREMENT COMPLETED  2.109E-02,  FRACTION OF STEP COMPLETED  0.798    
 STEP TIME COMPLETED       0.798    ,  TOTAL TIME COMPLETED        0.798    


  INCREMENT    12 STARTS. ATTEMPT NUMBER  1, TIME INCREMENT  3.164E-02

  NUMBER OF EQUATIONS =     16235     NUMBER OF RHS =    1
  NUMBER OF FLOATING PT. OPERATIONS =  9.74E+07

     CHECK POINT   START OF SOLVER    

     CHECK POINT  END OF SOLVER       

       ELAPSED USER TIME (SEC)      =   0.0000    
       ELAPSED SYSTEM TIME (SEC)    =   0.0000    
       ELAPSED TOTAL CPU TIME (SEC) =   0.0000    
       ELAPSED WALLCLOCK TIME (SEC) =          0

               CONVERGENCE CHECKS FOR EQUILIBRIUM ITERATION     1


 AVERAGE FORCE                       163.       TIME AVG. FORCE        122.    
 LARGEST RESIDUAL FORCE              226.       AT NODE        619   DOF  2
 LARGEST INCREMENT OF DISP.         9.373E-03   AT NODE       2674   DOF  2
 LARGEST CORRECTION TO DISP.        7.201E-03   AT NODE        625   DOF  2
          FORCE     EQUILIBRIUM NOT ACHIEVED WITHIN TOLERANCE.

 AVERAGE MOMENT                     8.693E-16   TIME AVG. MOMENT       13.8    
                                                (FROM FORCE     FIELD)
 LARGEST RESIDUAL MOMENT            1.737E-15   AT NODE   50000001   DOF  6
 LARGEST INCREMENT OF ROTATION      2.929E-04   AT NODE   50000001   DOF  6
 LARGEST CORRECTION TO ROTATION    -4.754E-05   AT NODE   50000001   DOF  6
          THERE IS ZERO MOMENT    EVERYWHERE

  NUMBER OF EQUATIONS =     16235     NUMBER OF RHS =    1
  NUMBER OF FLOATING PT. OPERATIONS =  9.68E+07

     CHECK POINT   START OF SOLVER    

     CHECK POINT  END OF SOLVER       

       ELAPSED USER TIME (SEC)      =   0.0000    
       ELAPSED SYSTEM TIME (SEC)    =   0.0000    
       ELAPSED TOTAL CPU TIME (SEC) =   0.0000    
       ELAPSED WALLCLOCK TIME (SEC) =          0
 

 ***WARNING: THE SYSTEM MATRIX HAS 1 NEGATIVE EIGENVALUES.
             EXPLANATIONS ARE SUGGESTED AFTER THE FIRST OCCURRENCE OF THIS MESSAGE.

 ***WARNING: THE STRAIN INCREMENT HAS EXCEEDED FIFTY TIMES THE STRAIN TO CAUSE 
             FIRST YIELD AT 173 POINTS

               CONVERGENCE CHECKS FOR EQUILIBRIUM ITERATION     2


 AVERAGE FORCE                       206.       TIME AVG. FORCE        126.    
 LARGEST RESIDUAL FORCE            -4.867E+03   AT NODE        616   DOF  2
 LARGEST INCREMENT OF DISP.         0.119       AT NODE        616   DOF  2
 LARGEST CORRECTION TO DISP.        0.113       AT NODE        616   DOF  2
          FORCE     EQUILIBRIUM NOT ACHIEVED WITHIN TOLERANCE.

 AVERAGE MOMENT                     1.796E-17   TIME AVG. MOMENT       13.8    
                                                (FROM FORCE     FIELD)
 LARGEST RESIDUAL MOMENT            3.593E-17   AT NODE   50000001   DOF  6
 LARGEST INCREMENT OF ROTATION     -5.105E-04   AT NODE   50000001   DOF  6
 LARGEST CORRECTION TO ROTATION    -8.033E-04   AT NODE   50000001   DOF  6
          THERE IS ZERO MOMENT    EVERYWHERE

  NUMBER OF EQUATIONS =     16235     NUMBER OF RHS =    1
  NUMBER OF FLOATING PT. OPERATIONS =  9.63E+07

     CHECK POINT   START OF SOLVER    

     CHECK POINT  END OF SOLVER       

       ELAPSED USER TIME (SEC)      =  0.10000    
       ELAPSED SYSTEM TIME (SEC)    =   0.0000    
       ELAPSED TOTAL CPU TIME (SEC) =  0.10000    
       ELAPSED WALLCLOCK TIME (SEC) =          0
 

 ***WARNING: THE SYSTEM MATRIX HAS 1 NEGATIVE EIGENVALUES.
             EXPLANATIONS ARE SUGGESTED AFTER THE FIRST OCCURRENCE OF THIS MESSAGE.

 ***WARNING: THE STRAIN INCREMENT HAS EXCEEDED FIFTY TIMES THE STRAIN TO CAUSE 
             FIRST YIELD AT 685 POINTS

               CONVERGENCE CHECKS FOR EQUILIBRIUM ITERATION     3


 AVERAGE FORCE                       204.       TIME AVG. FORCE        125.    
 LARGEST RESIDUAL FORCE             5.886E+04   AT NODE        614   DOF  2
 LARGEST INCREMENT OF DISP.        -0.259       AT NODE       2663   DOF  2
 LARGEST CORRECTION TO DISP.       -0.376       AT NODE       2663   DOF  2
          FORCE     EQUILIBRIUM NOT ACHIEVED WITHIN TOLERANCE.

 AVERAGE MOMENT                     1.907E-17   TIME AVG. MOMENT       13.8    
                                                (FROM FORCE     FIELD)
 LARGEST RESIDUAL MOMENT           -3.814E-17   AT NODE   50000001   DOF  6
 LARGEST INCREMENT OF ROTATION      3.295E-04   AT NODE   50000001   DOF  6
 LARGEST CORRECTION TO ROTATION     8.399E-04   AT NODE   50000001   DOF  6
          THERE IS ZERO MOMENT    EVERYWHERE

  NUMBER OF EQUATIONS =     16235     NUMBER OF RHS =    1
  NUMBER OF FLOATING PT. OPERATIONS =  9.48E+07

     CHECK POINT   START OF SOLVER    

     CHECK POINT  END OF SOLVER       

       ELAPSED USER TIME (SEC)      =  0.10000    
       ELAPSED SYSTEM TIME (SEC)    =   0.0000    
       ELAPSED TOTAL CPU TIME (SEC) =  0.10000    
       ELAPSED WALLCLOCK TIME (SEC) =          0
 

 ***WARNING: THE SYSTEM MATRIX HAS 5 NEGATIVE EIGENVALUES.
             EXPLANATIONS ARE SUGGESTED AFTER THE FIRST OCCURRENCE OF THIS MESSAGE.

 ***WARNING: THE STRAIN INCREMENT HAS EXCEEDED FIFTY TIMES THE STRAIN TO CAUSE 
             FIRST YIELD AT 1283 POINTS

 ***WARNING: THE STRAIN INCREMENT IS SO LARGE THAT THE PROGRAM WILL NOT ATTEMPT 
             THE PLASTICITY CALCULATION AT 3 POINTS
 

 ***NOTE: MATERIAL CALCULATIONS FAILED TO CONVERGE OR WERE NOT ATTEMPTED AT ONE 
          OR MORE POINTS. CONVERGENCE IS JUDGED UNLIKELY.


  INCREMENT    12 STARTS. ATTEMPT NUMBER  2, TIME INCREMENT  7.910E-03

  NUMBER OF EQUATIONS =     16235     NUMBER OF RHS =    1
  NUMBER OF FLOATING PT. OPERATIONS =  9.60E+07

     CHECK POINT   START OF SOLVER    

     CHECK POINT  END OF SOLVER       

       ELAPSED USER TIME (SEC)      =   0.0000    
       ELAPSED SYSTEM TIME (SEC)    =   0.0000    
       ELAPSED TOTAL CPU TIME (SEC) =   0.0000    
       ELAPSED WALLCLOCK TIME (SEC) =          0

               CONVERGENCE CHECKS FOR EQUILIBRIUM ITERATION     1


 AVERAGE FORCE                       167.       TIME AVG. FORCE        122.    
 LARGEST RESIDUAL FORCE             -16.3       AT NODE       6778   DOF  1
 LARGEST INCREMENT OF DISP.         1.741E-03   AT NODE    1508929   DOF  2
 LARGEST CORRECTION TO DISP.        2.607E-04   AT NODE        627   DOF  2
          FORCE     EQUILIBRIUM NOT ACHIEVED WITHIN TOLERANCE.

 AVERAGE MOMENT                     8.683E-16   TIME AVG. MOMENT       13.8    
                                                (FROM FORCE     FIELD)
 LARGEST RESIDUAL MOMENT           -1.735E-15   AT NODE   50000001   DOF  6
 LARGEST INCREMENT OF ROTATION      8.316E-05   AT NODE   50000001   DOF  6
 LARGEST CORRECTION TO ROTATION    -1.943E-06   AT NODE   50000001   DOF  6
          THERE IS ZERO MOMENT    EVERYWHERE

  NUMBER OF EQUATIONS =     16235     NUMBER OF RHS =    1
  NUMBER OF FLOATING PT. OPERATIONS =  9.60E+07

     CHECK POINT   START OF SOLVER    

     CHECK POINT  END OF SOLVER       

       ELAPSED USER TIME (SEC)      =   0.0000    
       ELAPSED SYSTEM TIME (SEC)    =   0.0000    
       ELAPSED TOTAL CPU TIME (SEC) =   0.0000    
       ELAPSED WALLCLOCK TIME (SEC) =          1

               CONVERGENCE CHECKS FOR EQUILIBRIUM ITERATION     2


 AVERAGE FORCE                       167.       TIME AVG. FORCE        122.    
 LARGEST RESIDUAL FORCE            -0.781       AT NODE      12920   DOF  2
 LARGEST INCREMENT OF DISP.         1.741E-03   AT NODE    1508929   DOF  2
 LARGEST CORRECTION TO DISP.       -2.402E-05   AT NODE        625   DOF  2
          FORCE     EQUILIBRIUM NOT ACHIEVED WITHIN TOLERANCE.

 AVERAGE MOMENT                     1.736E-15   TIME AVG. MOMENT       13.8    
                                                (FROM FORCE     FIELD)
 LARGEST RESIDUAL MOMENT            3.469E-15   AT NODE   50000001   DOF  6
 LARGEST INCREMENT OF ROTATION      8.320E-05   AT NODE   50000001   DOF  6
 LARGEST CORRECTION TO ROTATION     4.057E-08   AT NODE   50000001   DOF  6
          THERE IS ZERO MOMENT    EVERYWHERE

  NUMBER OF EQUATIONS =     16235     NUMBER OF RHS =    1
  NUMBER OF FLOATING PT. OPERATIONS =  9.60E+07

     CHECK POINT   START OF SOLVER    

     CHECK POINT  END OF SOLVER       

       ELAPSED USER TIME (SEC)      =   0.0000    
       ELAPSED SYSTEM TIME (SEC)    =   0.0000    
       ELAPSED TOTAL CPU TIME (SEC) =   0.0000    
       ELAPSED WALLCLOCK TIME (SEC) =          1

               CONVERGENCE CHECKS FOR EQUILIBRIUM ITERATION     3


 AVERAGE FORCE                       167.       TIME AVG. FORCE        122.    
 LARGEST RESIDUAL FORCE            -7.288E-02   AT NODE      17018   DOF  2
 LARGEST INCREMENT OF DISP.         1.741E-03   AT NODE    1508929   DOF  2
 LARGEST CORRECTION TO DISP.       -2.880E-06   AT NODE        627   DOF  2
          THE FORCE     EQUILIBRIUM EQUATIONS HAVE CONVERGED

 AVERAGE MOMENT                     8.682E-16   TIME AVG. MOMENT       13.8    
                                                (FROM FORCE     FIELD)
 LARGEST RESIDUAL MOMENT           -1.735E-15   AT NODE   50000001   DOF  6
 LARGEST INCREMENT OF ROTATION      8.321E-05   AT NODE   50000001   DOF  6
 LARGEST CORRECTION TO ROTATION     1.192E-08   AT NODE   50000001   DOF  6
          THERE IS ZERO MOMENT    EVERYWHERE
          TIME INCREMENT MAY NOW INCREASE TO    1.187E-02

 ITERATION SUMMARY FOR THE INCREMENT:   3 TOTAL ITERATIONS, OF WHICH
   0 ARE SEVERE DISCONTINUITY ITERATIONS AND  3 ARE EQUILIBRIUM ITERATIONS.

 TIME INCREMENT COMPLETED  7.910E-03,  FRACTION OF STEP COMPLETED  0.806    
 STEP TIME COMPLETED       0.806    ,  TOTAL TIME COMPLETED        0.806    


  INCREMENT    13 STARTS. ATTEMPT NUMBER  1, TIME INCREMENT  1.187E-02

  NUMBER OF EQUATIONS =     16235     NUMBER OF RHS =    1
  NUMBER OF FLOATING PT. OPERATIONS =  9.60E+07

     CHECK POINT   START OF SOLVER    

     CHECK POINT  END OF SOLVER       

       ELAPSED USER TIME (SEC)      =  0.10000    
       ELAPSED SYSTEM TIME (SEC)    =   0.0000    
       ELAPSED TOTAL CPU TIME (SEC) =  0.10000    
       ELAPSED WALLCLOCK TIME (SEC) =          0

               CONVERGENCE CHECKS FOR EQUILIBRIUM ITERATION     1


 AVERAGE FORCE                       167.       TIME AVG. FORCE        126.    
 LARGEST RESIDUAL FORCE             -29.2       AT NODE       6776   DOF  1
 LARGEST INCREMENT OF DISP.         2.612E-03   AT NODE    1902145   DOF  2
 LARGEST CORRECTION TO DISP.        4.057E-04   AT NODE        624   DOF  2
          FORCE     EQUILIBRIUM NOT ACHIEVED WITHIN TOLERANCE.

 AVERAGE MOMENT                     9.095E-20   TIME AVG. MOMENT       14.3    
                                                (FROM FORCE     FIELD)
 LARGEST RESIDUAL MOMENT           -1.819E-19   AT NODE   50000001   DOF  6
 LARGEST INCREMENT OF ROTATION      1.227E-04   AT NODE   50000001   DOF  6
 LARGEST CORRECTION TO ROTATION    -2.080E-06   AT NODE   50000001   DOF  6
          THERE IS ZERO MOMENT    EVERYWHERE

  NUMBER OF EQUATIONS =     16235     NUMBER OF RHS =    1
  NUMBER OF FLOATING PT. OPERATIONS =  9.60E+07

     CHECK POINT   START OF SOLVER    

     CHECK POINT  END OF SOLVER       

       ELAPSED USER TIME (SEC)      =   0.0000    
       ELAPSED SYSTEM TIME (SEC)    =   0.0000    
       ELAPSED TOTAL CPU TIME (SEC) =   0.0000    
       ELAPSED WALLCLOCK TIME (SEC) =          0

               CONVERGENCE CHECKS FOR EQUILIBRIUM ITERATION     2


 AVERAGE FORCE                       167.       TIME AVG. FORCE        126.    
 LARGEST RESIDUAL FORCE             -1.85       AT NODE       6771   DOF  2
 LARGEST INCREMENT OF DISP.         2.612E-03   AT NODE    1902145   DOF  2
 LARGEST CORRECTION TO DISP.       -7.423E-05   AT NODE        624   DOF  2
          FORCE     EQUILIBRIUM NOT ACHIEVED WITHIN TOLERANCE.

 AVERAGE MOMENT                     8.682E-16   TIME AVG. MOMENT       14.3    
                                                (FROM FORCE     FIELD)
 LARGEST RESIDUAL MOMENT           -1.735E-15   AT NODE   50000001   DOF  6
 LARGEST INCREMENT OF ROTATION      1.230E-04   AT NODE   50000001   DOF  6
 LARGEST CORRECTION TO ROTATION     2.387E-07   AT NODE   50000001   DOF  6
          THERE IS ZERO MOMENT    EVERYWHERE

  NUMBER OF EQUATIONS =     16235     NUMBER OF RHS =    1
  NUMBER OF FLOATING PT. OPERATIONS =  9.60E+07

     CHECK POINT   START OF SOLVER    

     CHECK POINT  END OF SOLVER       

       ELAPSED USER TIME (SEC)      =  0.10000    
       ELAPSED SYSTEM TIME (SEC)    =   0.0000    
       ELAPSED TOTAL CPU TIME (SEC) =  0.10000    
       ELAPSED WALLCLOCK TIME (SEC) =          0

               CONVERGENCE CHECKS FOR EQUILIBRIUM ITERATION     3


 AVERAGE FORCE                       167.       TIME AVG. FORCE        126.    
 LARGEST RESIDUAL FORCE            -0.442       AT NODE      21112   DOF  2
 LARGEST INCREMENT OF DISP.         2.612E-03   AT NODE    1902145   DOF  2
 LARGEST CORRECTION TO DISP.       -1.205E-05   AT NODE        624   DOF  2
          THE FORCE     EQUILIBRIUM EQUATIONS HAVE CONVERGED

 AVERAGE MOMENT                     8.682E-16   TIME AVG. MOMENT       14.3    
                                                (FROM FORCE     FIELD)
 LARGEST RESIDUAL MOMENT            1.735E-15   AT NODE   50000001   DOF  6
 LARGEST INCREMENT OF ROTATION      1.230E-04   AT NODE   50000001   DOF  6
 LARGEST CORRECTION TO ROTATION     7.197E-08   AT NODE   50000001   DOF  6
          THERE IS ZERO MOMENT    EVERYWHERE
          TIME INCREMENT MAY NOW INCREASE TO    1.780E-02

 ITERATION SUMMARY FOR THE INCREMENT:   3 TOTAL ITERATIONS, OF WHICH
   0 ARE SEVERE DISCONTINUITY ITERATIONS AND  3 ARE EQUILIBRIUM ITERATIONS.

 TIME INCREMENT COMPLETED  1.187E-02,  FRACTION OF STEP COMPLETED  0.817    
 STEP TIME COMPLETED       0.817    ,  TOTAL TIME COMPLETED        0.817    


  INCREMENT    14 STARTS. ATTEMPT NUMBER  1, TIME INCREMENT  1.780E-02

  NUMBER OF EQUATIONS =     16235     NUMBER OF RHS =    1
  NUMBER OF FLOATING PT. OPERATIONS =  9.60E+07

     CHECK POINT   START OF SOLVER    

     CHECK POINT  END OF SOLVER       

       ELAPSED USER TIME (SEC)      =  0.10000    
       ELAPSED SYSTEM TIME (SEC)    =   0.0000    
       ELAPSED TOTAL CPU TIME (SEC) =  0.10000    
       ELAPSED WALLCLOCK TIME (SEC) =          0

               CONVERGENCE CHECKS FOR EQUILIBRIUM ITERATION     1


 AVERAGE FORCE                       165.       TIME AVG. FORCE        129.    
 LARGEST RESIDUAL FORCE              129.       AT NODE       6776   DOF  2
 LARGEST INCREMENT OF DISP.         3.943E-03   AT NODE     329281   DOF  2
 LARGEST CORRECTION TO DISP.        1.924E-03   AT NODE        621   DOF  2
          FORCE     EQUILIBRIUM NOT ACHIEVED WITHIN TOLERANCE.

 AVERAGE MOMENT                     4.757E-19   TIME AVG. MOMENT       14.7    
                                                (FROM FORCE     FIELD)
 LARGEST RESIDUAL MOMENT           -9.514E-19   AT NODE   50000001   DOF  6
 LARGEST INCREMENT OF ROTATION      1.737E-04   AT NODE   50000001   DOF  6
 LARGEST CORRECTION TO ROTATION    -1.087E-05   AT NODE   50000001   DOF  6
          THERE IS ZERO MOMENT    EVERYWHERE

  NUMBER OF EQUATIONS =     16235     NUMBER OF RHS =    1
  NUMBER OF FLOATING PT. OPERATIONS =  9.60E+07

     CHECK POINT   START OF SOLVER    

     CHECK POINT  END OF SOLVER       

       ELAPSED USER TIME (SEC)      =   0.0000    
       ELAPSED SYSTEM TIME (SEC)    =   0.0000    
       ELAPSED TOTAL CPU TIME (SEC) =   0.0000    
       ELAPSED WALLCLOCK TIME (SEC) =          0

               CONVERGENCE CHECKS FOR EQUILIBRIUM ITERATION     2


 AVERAGE FORCE                       174.       TIME AVG. FORCE        129.    
 LARGEST RESIDUAL FORCE              350.       AT NODE        623   DOF  2
 LARGEST INCREMENT OF DISP.        -4.779E-03   AT NODE        623   DOF  2
 LARGEST CORRECTION TO DISP.       -8.359E-03   AT NODE        623   DOF  2
          FORCE     EQUILIBRIUM NOT ACHIEVED WITHIN TOLERANCE.

 AVERAGE MOMENT                     3.068E-18   TIME AVG. MOMENT       14.7    
                                                (FROM FORCE     FIELD)
 LARGEST RESIDUAL MOMENT            6.137E-18   AT NODE   50000001   DOF  6
 LARGEST INCREMENT OF ROTATION      2.439E-04   AT NODE   50000001   DOF  6
 LARGEST CORRECTION TO ROTATION     7.024E-05   AT NODE   50000001   DOF  6
          THERE IS ZERO MOMENT    EVERYWHERE

  NUMBER OF EQUATIONS =     16235     NUMBER OF RHS =    1
  NUMBER OF FLOATING PT. OPERATIONS =  9.76E+07

     CHECK POINT   START OF SOLVER    

     CHECK POINT  END OF SOLVER       

       ELAPSED USER TIME (SEC)      =  0.10000    
       ELAPSED SYSTEM TIME (SEC)    =   0.0000    
       ELAPSED TOTAL CPU TIME (SEC) =  0.10000    
       ELAPSED WALLCLOCK TIME (SEC) =          1

               CONVERGENCE CHECKS FOR EQUILIBRIUM ITERATION     3


 AVERAGE FORCE                       169.       TIME AVG. FORCE        129.    
 LARGEST RESIDUAL FORCE              326.       AT NODE        623   DOF  2
 LARGEST INCREMENT OF DISP.         4.770E-03   AT NODE       4720   DOF  2
 LARGEST CORRECTION TO DISP.        9.504E-03   AT NODE        623   DOF  2
          FORCE     EQUILIBRIUM NOT ACHIEVED WITHIN TOLERANCE.

 AVERAGE MOMENT                     8.670E-16   TIME AVG. MOMENT       14.7    
                                                (FROM FORCE     FIELD)
 LARGEST RESIDUAL MOMENT            1.732E-15   AT NODE   50000001   DOF  6
 LARGEST INCREMENT OF ROTATION      2.153E-04   AT NODE   50000001   DOF  6
 LARGEST CORRECTION TO ROTATION    -2.867E-05   AT NODE   50000001   DOF  6
          THERE IS ZERO MOMENT    EVERYWHERE

  NUMBER OF EQUATIONS =     16235     NUMBER OF RHS =    1
  NUMBER OF FLOATING PT. OPERATIONS =  9.76E+07

     CHECK POINT   START OF SOLVER    

     CHECK POINT  END OF SOLVER       

       ELAPSED USER TIME (SEC)      =  0.10000    
       ELAPSED SYSTEM TIME (SEC)    =   0.0000    
       ELAPSED TOTAL CPU TIME (SEC) =  0.10000    
       ELAPSED WALLCLOCK TIME (SEC) =          0
 

 ***WARNING: THE SYSTEM MATRIX HAS 2 NEGATIVE EIGENVALUES.
             EXPLANATIONS ARE SUGGESTED AFTER THE FIRST OCCURRENCE OF THIS MESSAGE.

 ***WARNING: THE STRAIN INCREMENT HAS EXCEEDED FIFTY TIMES THE STRAIN TO CAUSE 
             FIRST YIELD AT 2 POINTS

               CONVERGENCE CHECKS FOR EQUILIBRIUM ITERATION     4


 AVERAGE FORCE                       163.       TIME AVG. FORCE        128.    
 LARGEST RESIDUAL FORCE             -446.       AT NODE        626   DOF  2
 LARGEST INCREMENT OF DISP.         1.862E-02   AT NODE        628   DOF  2
 LARGEST CORRECTION TO DISP.        1.760E-02   AT NODE        628   DOF  2
          FORCE     EQUILIBRIUM NOT ACHIEVED WITHIN TOLERANCE.

 AVERAGE MOMENT                     8.715E-16   TIME AVG. MOMENT       14.7    
                                                (FROM FORCE     FIELD)
 LARGEST RESIDUAL MOMENT           -1.741E-15   AT NODE   50000001   DOF  6
 LARGEST INCREMENT OF ROTATION      1.411E-04   AT NODE   50000001   DOF  6
 LARGEST CORRECTION TO ROTATION    -7.421E-05   AT NODE   50000001   DOF  6
          THERE IS ZERO MOMENT    EVERYWHERE
 

 ***NOTE: THE SOLUTION APPEARS TO BE DIVERGING. CONVERGENCE IS JUDGED UNLIKELY.


  INCREMENT    14 STARTS. ATTEMPT NUMBER  2, TIME INCREMENT  4.449E-03

  NUMBER OF EQUATIONS =     16235     NUMBER OF RHS =    1
  NUMBER OF FLOATING PT. OPERATIONS =  9.76E+07

     CHECK POINT   START OF SOLVER    

     CHECK POINT  END OF SOLVER       

       ELAPSED USER TIME (SEC)      =  0.10000    
       ELAPSED SYSTEM TIME (SEC)    =   0.0000    
       ELAPSED TOTAL CPU TIME (SEC) =  0.10000    
       ELAPSED WALLCLOCK TIME (SEC) =          0

               CONVERGENCE CHECKS FOR EQUILIBRIUM ITERATION     1


 AVERAGE FORCE                       167.       TIME AVG. FORCE        129.    
 LARGEST RESIDUAL FORCE             -8.07       AT NODE      10871   DOF  1
 LARGEST INCREMENT OF DISP.         9.798E-04   AT NODE    1902145   DOF  2
 LARGEST CORRECTION TO DISP.        1.024E-04   AT NODE        621   DOF  2
          FORCE     EQUILIBRIUM NOT ACHIEVED WITHIN TOLERANCE.

 AVERAGE MOMENT                     1.555E-20   TIME AVG. MOMENT       14.7    
                                                (FROM FORCE     FIELD)
 LARGEST RESIDUAL MOMENT           -3.111E-20   AT NODE   50000001   DOF  6
 LARGEST INCREMENT OF ROTATION      4.579E-05   AT NODE   50000001   DOF  6
 LARGEST CORRECTION TO ROTATION    -3.556E-07   AT NODE   50000001   DOF  6
          THERE IS ZERO MOMENT    EVERYWHERE

  NUMBER OF EQUATIONS =     16235     NUMBER OF RHS =    1
[...]
             EXPLANATIONS ARE SUGGESTED AFTER THE FIRST OCCURRENCE OF THIS MESSAGE.

               CONVERGENCE CHECKS FOR EQUILIBRIUM ITERATION     3


 AVERAGE FORCE                       116.       TIME AVG. FORCE        142.    
 LARGEST RESIDUAL FORCE             2.012E+03   AT NODE        465   DOF  2
 LARGEST INCREMENT OF DISP.         6.956E-03   AT NODE        537   DOF  2
 LARGEST CORRECTION TO DISP.       -6.886E-03   AT NODE       4637   DOF  2
          FORCE     EQUILIBRIUM NOT ACHIEVED WITHIN TOLERANCE.

 AVERAGE MOMENT                     1.171E-18   TIME AVG. MOMENT       16.6    
                                                (FROM FORCE     FIELD)
 LARGEST RESIDUAL MOMENT           -2.343E-18   AT NODE   50000001   DOF  6
 LARGEST INCREMENT OF ROTATION      7.139E-06   AT NODE   50000001   DOF  6
 LARGEST CORRECTION TO ROTATION     4.471E-05   AT NODE   50000001   DOF  6
          THERE IS ZERO MOMENT    EVERYWHERE

  NUMBER OF EQUATIONS =     16235     NUMBER OF RHS =    1
  NUMBER OF FLOATING PT. OPERATIONS =  9.26E+07

     CHECK POINT   START OF SOLVER    

     CHECK POINT  END OF SOLVER       

       ELAPSED USER TIME (SEC)      =  0.10000    
       ELAPSED SYSTEM TIME (SEC)    =   0.0000    
       ELAPSED TOTAL CPU TIME (SEC) =  0.10000    
       ELAPSED WALLCLOCK TIME (SEC) =          1
 

 ***WARNING: THE SYSTEM MATRIX HAS 3 NEGATIVE EIGENVALUES.
             EXPLANATIONS ARE SUGGESTED AFTER THE FIRST OCCURRENCE OF THIS MESSAGE.

 ***WARNING: THE STRAIN INCREMENT HAS EXCEEDED FIFTY TIMES THE STRAIN TO CAUSE 
             FIRST YIELD AT 251 POINTS

 ***WARNING: THE STRAIN INCREMENT IS SO LARGE THAT THE PROGRAM WILL NOT ATTEMPT 
             THE PLASTICITY CALCULATION AT 13 POINTS
 

 ***NOTE: MATERIAL CALCULATIONS FAILED TO CONVERGE OR WERE NOT ATTEMPTED AT ONE 
          OR MORE POINTS. CONVERGENCE IS JUDGED UNLIKELY.


  INCREMENT    50 STARTS. ATTEMPT NUMBER  2, TIME INCREMENT  1.831E-03

  NUMBER OF EQUATIONS =     16235     NUMBER OF RHS =    1
  NUMBER OF FLOATING PT. OPERATIONS =  9.37E+07

     CHECK POINT   START OF SOLVER    

     CHECK POINT  END OF SOLVER       

       ELAPSED USER TIME (SEC)      =  0.10000    
       ELAPSED SYSTEM TIME (SEC)    =   0.0000    
       ELAPSED TOTAL CPU TIME (SEC) =  0.10000    
       ELAPSED WALLCLOCK TIME (SEC) =          0

               CONVERGENCE CHECKS FOR EQUILIBRIUM ITERATION     1


 AVERAGE FORCE                       123.       TIME AVG. FORCE        142.    
 LARGEST RESIDUAL FORCE             -7.51       AT NODE      14887   DOF  1
 LARGEST INCREMENT OF DISP.         5.239E-04   AT NODE        547   DOF  2
 LARGEST CORRECTION TO DISP.       -1.075E-04   AT NODE        553   DOF  2
          FORCE     EQUILIBRIUM NOT ACHIEVED WITHIN TOLERANCE.

 AVERAGE MOMENT                     1.459E-20   TIME AVG. MOMENT       16.6    
                                                (FROM FORCE     FIELD)
 LARGEST RESIDUAL MOMENT           -2.919E-20   AT NODE   50000001   DOF  6
 LARGEST INCREMENT OF ROTATION      1.427E-05   AT NODE   50000001   DOF  6
 LARGEST CORRECTION TO ROTATION     5.606E-07   AT NODE   50000001   DOF  6
          THERE IS ZERO MOMENT    EVERYWHERE

  NUMBER OF EQUATIONS =     16235     NUMBER OF RHS =    1
  NUMBER OF FLOATING PT. OPERATIONS =  9.37E+07

     CHECK POINT   START OF SOLVER    

     CHECK POINT  END OF SOLVER       

       ELAPSED USER TIME (SEC)      =   0.0000    
       ELAPSED SYSTEM TIME (SEC)    =   0.0000    
       ELAPSED TOTAL CPU TIME (SEC) =   0.0000    
       ELAPSED WALLCLOCK TIME (SEC) =          0

               CONVERGENCE CHECKS FOR EQUILIBRIUM ITERATION     2


 AVERAGE FORCE                       123.       TIME AVG. FORCE        142.    
 LARGEST RESIDUAL FORCE             0.710       AT NODE      12836   DOF  2
 LARGEST INCREMENT OF DISP.         5.187E-04   AT NODE        547   DOF  2
 LARGEST CORRECTION TO DISP.       -2.021E-05   AT NODE        541   DOF  2
 ESTIMATE OF DISP.    CORRECTION    1.911E-06
 FORCE     EQUILIB. ACCEPTED BASED ON SMALL RESIDUAL AND ESTIMATED CORRECTION

 AVERAGE MOMENT                     8.682E-16   TIME AVG. MOMENT       16.6    
                                                (FROM FORCE     FIELD)
 LARGEST RESIDUAL MOMENT           -1.735E-15   AT NODE   50000001   DOF  6
 LARGEST INCREMENT OF ROTATION      1.437E-05   AT NODE   50000001   DOF  6
 LARGEST CORRECTION TO ROTATION     1.021E-07   AT NODE   50000001   DOF  6
          THERE IS ZERO MOMENT    EVERYWHERE
          TIME INCREMENT MAY NOW INCREASE TO    2.746E-03

 ITERATION SUMMARY FOR THE INCREMENT:   2 TOTAL ITERATIONS, OF WHICH
   0 ARE SEVERE DISCONTINUITY ITERATIONS AND  2 ARE EQUILIBRIUM ITERATIONS.

 TIME INCREMENT COMPLETED  1.831E-03,  FRACTION OF STEP COMPLETED  0.987    
 STEP TIME COMPLETED       0.987    ,  TOTAL TIME COMPLETED        0.987    


  INCREMENT    51 STARTS. ATTEMPT NUMBER  1, TIME INCREMENT  2.746E-03

  NUMBER OF EQUATIONS =     16235     NUMBER OF RHS =    1
  NUMBER OF FLOATING PT. OPERATIONS =  9.37E+07

     CHECK POINT   START OF SOLVER    

     CHECK POINT  END OF SOLVER       

       ELAPSED USER TIME (SEC)      =  0.10000    
       ELAPSED SYSTEM TIME (SEC)    =   0.0000    
       ELAPSED TOTAL CPU TIME (SEC) =  0.10000    
       ELAPSED WALLCLOCK TIME (SEC) =          0

               CONVERGENCE CHECKS FOR EQUILIBRIUM ITERATION     1


 AVERAGE FORCE                       122.       TIME AVG. FORCE        142.    
 LARGEST RESIDUAL FORCE             -13.2       AT NODE       4637   DOF  2
 LARGEST INCREMENT OF DISP.         7.267E-04   AT NODE        546   DOF  2
 LARGEST CORRECTION TO DISP.       -9.303E-05   AT NODE        551   DOF  2
          FORCE     EQUILIBRIUM NOT ACHIEVED WITHIN TOLERANCE.

 AVERAGE MOMENT                     1.915E-20   TIME AVG. MOMENT       16.6    
                                                (FROM FORCE     FIELD)
 LARGEST RESIDUAL MOMENT           -3.831E-20   AT NODE   50000001   DOF  6
 LARGEST INCREMENT OF ROTATION      2.228E-05   AT NODE   50000001   DOF  6
 LARGEST CORRECTION TO ROTATION     7.318E-07   AT NODE   50000001   DOF  6
          THERE IS ZERO MOMENT    EVERYWHERE

  NUMBER OF EQUATIONS =     16235     NUMBER OF RHS =    1
  NUMBER OF FLOATING PT. OPERATIONS =  9.37E+07

     CHECK POINT   START OF SOLVER    

     CHECK POINT  END OF SOLVER       

       ELAPSED USER TIME (SEC)      =   0.0000    
       ELAPSED SYSTEM TIME (SEC)    =   0.0000    
       ELAPSED TOTAL CPU TIME (SEC) =   0.0000    
       ELAPSED WALLCLOCK TIME (SEC) =          0

               CONVERGENCE CHECKS FOR EQUILIBRIUM ITERATION     2


 AVERAGE FORCE                       123.       TIME AVG. FORCE        142.    
 LARGEST RESIDUAL FORCE            -0.300       AT NODE      41510   DOF  2
 LARGEST INCREMENT OF DISP.         7.140E-04   AT NODE        546   DOF  2
 LARGEST CORRECTION TO DISP.       -2.852E-05   AT NODE        539   DOF  2
 ESTIMATE OF DISP.    CORRECTION   -6.495E-07
 FORCE     EQUILIB. ACCEPTED BASED ON SMALL RESIDUAL AND ESTIMATED CORRECTION

 AVERAGE MOMENT                     8.682E-16   TIME AVG. MOMENT       16.6    
                                                (FROM FORCE     FIELD)
 LARGEST RESIDUAL MOMENT            1.735E-15   AT NODE   50000001   DOF  6
 LARGEST INCREMENT OF ROTATION      2.250E-05   AT NODE   50000001   DOF  6
 LARGEST CORRECTION TO ROTATION     2.133E-07   AT NODE   50000001   DOF  6
          THERE IS ZERO MOMENT    EVERYWHERE
          TIME INCREMENT MAY NOW INCREASE TO    4.119E-03

 ITERATION SUMMARY FOR THE INCREMENT:   2 TOTAL ITERATIONS, OF WHICH
   0 ARE SEVERE DISCONTINUITY ITERATIONS AND  2 ARE EQUILIBRIUM ITERATIONS.

 TIME INCREMENT COMPLETED  2.746E-03,  FRACTION OF STEP COMPLETED  0.990    
 STEP TIME COMPLETED       0.990    ,  TOTAL TIME COMPLETED        0.990    


  INCREMENT    52 STARTS. ATTEMPT NUMBER  1, TIME INCREMENT  4.119E-03

  NUMBER OF EQUATIONS =     16235     NUMBER OF RHS =    1
  NUMBER OF FLOATING PT. OPERATIONS =  9.37E+07

     CHECK POINT   START OF SOLVER    

     CHECK POINT  END OF SOLVER       

       ELAPSED USER TIME (SEC)      =  0.10000    
       ELAPSED SYSTEM TIME (SEC)    =   0.0000    
       ELAPSED TOTAL CPU TIME (SEC) =  0.10000    
       ELAPSED WALLCLOCK TIME (SEC) =          0

               CONVERGENCE CHECKS FOR EQUILIBRIUM ITERATION     1


 AVERAGE FORCE                       121.       TIME AVG. FORCE        142.    
 LARGEST RESIDUAL FORCE             -63.2       AT NODE       4635   DOF  2
 LARGEST INCREMENT OF DISP.         1.397E-03   AT NODE        541   DOF  2
 LARGEST CORRECTION TO DISP.        6.766E-04   AT NODE        537   DOF  2
          FORCE     EQUILIBRIUM NOT ACHIEVED WITHIN TOLERANCE.

 AVERAGE MOMENT                     8.681E-16   TIME AVG. MOMENT       16.5    
                                                (FROM FORCE     FIELD)
 LARGEST RESIDUAL MOMENT           -1.735E-15   AT NODE   50000001   DOF  6
 LARGEST INCREMENT OF ROTATION      3.003E-05   AT NODE   50000001   DOF  6
 LARGEST CORRECTION TO ROTATION    -3.714E-06   AT NODE   50000001   DOF  6
          THERE IS ZERO MOMENT    EVERYWHERE

  NUMBER OF EQUATIONS =     16235     NUMBER OF RHS =    1
  NUMBER OF FLOATING PT. OPERATIONS =  9.37E+07

     CHECK POINT   START OF SOLVER    

     CHECK POINT  END OF SOLVER       

       ELAPSED USER TIME (SEC)      =   0.0000    
       ELAPSED SYSTEM TIME (SEC)    =   0.0000    
       ELAPSED TOTAL CPU TIME (SEC) =   0.0000    
       ELAPSED WALLCLOCK TIME (SEC) =          0

               CONVERGENCE CHECKS FOR EQUILIBRIUM ITERATION     2


 AVERAGE FORCE                       121.       TIME AVG. FORCE        142.    
 LARGEST RESIDUAL FORCE              3.06       AT NODE      12825   DOF  1
 LARGEST INCREMENT OF DISP.         1.067E-03   AT NODE        544   DOF  2
 LARGEST CORRECTION TO DISP.       -4.077E-04   AT NODE        537   DOF  2
          FORCE     EQUILIBRIUM NOT ACHIEVED WITHIN TOLERANCE.

 AVERAGE MOMENT                     9.316E-20   TIME AVG. MOMENT       16.5    
                                                (FROM FORCE     FIELD)
 LARGEST RESIDUAL MOMENT           -1.863E-19   AT NODE   50000001   DOF  6
 LARGEST INCREMENT OF ROTATION      3.361E-05   AT NODE   50000001   DOF  6
 LARGEST CORRECTION TO ROTATION     3.574E-06   AT NODE   50000001   DOF  6
          THERE IS ZERO MOMENT    EVERYWHERE

  NUMBER OF EQUATIONS =     16235     NUMBER OF RHS =    1
  NUMBER OF FLOATING PT. OPERATIONS =  9.37E+07

     CHECK POINT   START OF SOLVER    

     CHECK POINT  END OF SOLVER       

       ELAPSED USER TIME (SEC)      =  0.10000    
       ELAPSED SYSTEM TIME (SEC)    =   0.0000    
       ELAPSED TOTAL CPU TIME (SEC) =  0.10000    
       ELAPSED WALLCLOCK TIME (SEC) =          1

               CONVERGENCE CHECKS FOR EQUILIBRIUM ITERATION     3


 AVERAGE FORCE                       121.       TIME AVG. FORCE        142.    
 LARGEST RESIDUAL FORCE            -0.853       AT NODE     213497   DOF  2
 LARGEST INCREMENT OF DISP.         1.086E-03   AT NODE        544   DOF  2
 LARGEST CORRECTION TO DISP.       -3.157E-05   AT NODE        535   DOF  2
          FORCE     EQUILIBRIUM NOT ACHIEVED WITHIN TOLERANCE.

 AVERAGE MOMENT                     3.757E-21   TIME AVG. MOMENT       16.5    
                                                (FROM FORCE     FIELD)
 LARGEST RESIDUAL MOMENT            7.514E-21   AT NODE   50000001   DOF  6
 LARGEST INCREMENT OF ROTATION      3.346E-05   AT NODE   50000001   DOF  6
 LARGEST CORRECTION TO ROTATION    -1.501E-07   AT NODE   50000001   DOF  6
          THERE IS ZERO MOMENT    EVERYWHERE

  NUMBER OF EQUATIONS =     16235     NUMBER OF RHS =    1
  NUMBER OF FLOATING PT. OPERATIONS =  9.37E+07

     CHECK POINT   START OF SOLVER    

     CHECK POINT  END OF SOLVER       

       ELAPSED USER TIME (SEC)      =  0.10000    
       ELAPSED SYSTEM TIME (SEC)    =   0.0000    
       ELAPSED TOTAL CPU TIME (SEC) =  0.10000    
       ELAPSED WALLCLOCK TIME (SEC) =          0

               CONVERGENCE CHECKS FOR EQUILIBRIUM ITERATION     4


 AVERAGE FORCE                       121.       TIME AVG. FORCE        142.    
 LARGEST RESIDUAL FORCE            -8.993E-02   AT NODE     213505   DOF  2
 LARGEST INCREMENT OF DISP.         1.086E-03   AT NODE        544   DOF  2
 LARGEST CORRECTION TO DISP.       -2.273E-06   AT NODE        535   DOF  2
          THE FORCE     EQUILIBRIUM EQUATIONS HAVE CONVERGED

 AVERAGE MOMENT                     9.374E-23   TIME AVG. MOMENT       16.5    
                                                (FROM FORCE     FIELD)
 LARGEST RESIDUAL MOMENT            1.875E-22   AT NODE   50000001   DOF  6
 LARGEST INCREMENT OF ROTATION      3.345E-05   AT NODE   50000001   DOF  6
 LARGEST CORRECTION TO ROTATION    -4.183E-09   AT NODE   50000001   DOF  6
          THERE IS ZERO MOMENT    EVERYWHERE
          TIME INCREMENT MAY NOW INCREASE TO    6.179E-03

 ITERATION SUMMARY FOR THE INCREMENT:   4 TOTAL ITERATIONS, OF WHICH
   0 ARE SEVERE DISCONTINUITY ITERATIONS AND  4 ARE EQUILIBRIUM ITERATIONS.

 TIME INCREMENT COMPLETED  4.119E-03,  FRACTION OF STEP COMPLETED  0.994    
 STEP TIME COMPLETED       0.994    ,  TOTAL TIME COMPLETED        0.994    


  INCREMENT    53 STARTS. ATTEMPT NUMBER  1, TIME INCREMENT  5.839E-03

  NUMBER OF EQUATIONS =     16235     NUMBER OF RHS =    1
  NUMBER OF FLOATING PT. OPERATIONS =  9.37E+07

     CHECK POINT   START OF SOLVER    

     CHECK POINT  END OF SOLVER       

       ELAPSED USER TIME (SEC)      =  0.10000    
       ELAPSED SYSTEM TIME (SEC)    =   0.0000    
       ELAPSED TOTAL CPU TIME (SEC) =  0.10000    
       ELAPSED WALLCLOCK TIME (SEC) =          0

               CONVERGENCE CHECKS FOR EQUILIBRIUM ITERATION     1


 AVERAGE FORCE                       119.       TIME AVG. FORCE        141.    
 LARGEST RESIDUAL FORCE             -151.       AT NODE       8733   DOF  1
 LARGEST INCREMENT OF DISP.         2.047E-03   AT NODE        537   DOF  2
 LARGEST CORRECTION TO DISP.        1.033E-03   AT NODE        535   DOF  2
          FORCE     EQUILIBRIUM NOT ACHIEVED WITHIN TOLERANCE.

 AVERAGE MOMENT                     8.681E-16   TIME AVG. MOMENT       16.5    
                                                (FROM FORCE     FIELD)
 LARGEST RESIDUAL MOMENT           -1.734E-15   AT NODE   50000001   DOF  6
 LARGEST INCREMENT OF ROTATION      4.207E-05   AT NODE   50000001   DOF  6
 LARGEST CORRECTION TO ROTATION    -5.347E-06   AT NODE   50000001   DOF  6
          THERE IS ZERO MOMENT    EVERYWHERE

  NUMBER OF EQUATIONS =     16235     NUMBER OF RHS =    1
  NUMBER OF FLOATING PT. OPERATIONS =  9.37E+07

     CHECK POINT   START OF SOLVER    

     CHECK POINT  END OF SOLVER       

       ELAPSED USER TIME (SEC)      =  0.10000    
       ELAPSED SYSTEM TIME (SEC)    =   0.0000    
       ELAPSED TOTAL CPU TIME (SEC) =  0.10000    
       ELAPSED WALLCLOCK TIME (SEC) =          0

               CONVERGENCE CHECKS FOR EQUILIBRIUM ITERATION     2


 AVERAGE FORCE                       119.       TIME AVG. FORCE        141.    
 LARGEST RESIDUAL FORCE             -10.3       AT NODE       4629   DOF  2
 LARGEST INCREMENT OF DISP.         1.520E-03   AT NODE        539   DOF  2
 LARGEST CORRECTION TO DISP.       -6.424E-04   AT NODE        535   DOF  2
          FORCE     EQUILIBRIUM NOT ACHIEVED WITHIN TOLERANCE.

 AVERAGE MOMENT                     8.681E-16   TIME AVG. MOMENT       16.5    
                                                (FROM FORCE     FIELD)
 LARGEST RESIDUAL MOMENT            1.734E-15   AT NODE   50000001   DOF  6
 LARGEST INCREMENT OF ROTATION      4.716E-05   AT NODE   50000001   DOF  6
 LARGEST CORRECTION TO ROTATION     5.086E-06   AT NODE   50000001   DOF  6
          THERE IS ZERO MOMENT    EVERYWHERE

  NUMBER OF EQUATIONS =     16235     NUMBER OF RHS =    1
  NUMBER OF FLOATING PT. OPERATIONS =  9.37E+07

     CHECK POINT   START OF SOLVER    

     CHECK POINT  END OF SOLVER       

       ELAPSED USER TIME (SEC)      =   0.0000    
       ELAPSED SYSTEM TIME (SEC)    =   0.0000    
       ELAPSED TOTAL CPU TIME (SEC) =   0.0000    
       ELAPSED WALLCLOCK TIME (SEC) =          1

               CONVERGENCE CHECKS FOR EQUILIBRIUM ITERATION     3


 AVERAGE FORCE                       119.       TIME AVG. FORCE        141.    
 LARGEST RESIDUAL FORCE             -3.39       AT NODE      29215   DOF  2
 LARGEST INCREMENT OF DISP.         1.655E-03   AT NODE        541   DOF  2
 LARGEST CORRECTION TO DISP.        1.368E-04   AT NODE        541   DOF  2
          FORCE     EQUILIBRIUM NOT ACHIEVED WITHIN TOLERANCE.

 AVERAGE MOMENT                     3.718E-20   TIME AVG. MOMENT       16.5    
                                                (FROM FORCE     FIELD)
 LARGEST RESIDUAL MOMENT            7.437E-20   AT NODE   50000001   DOF  6
 LARGEST INCREMENT OF ROTATION      4.571E-05   AT NODE   50000001   DOF  6
 LARGEST CORRECTION TO ROTATION    -1.449E-06   AT NODE   50000001   DOF  6
          THERE IS ZERO MOMENT    EVERYWHERE

  NUMBER OF EQUATIONS =     16235     NUMBER OF RHS =    1
  NUMBER OF FLOATING PT. OPERATIONS =  9.37E+07

     CHECK POINT   START OF SOLVER    

     CHECK POINT  END OF SOLVER       

       ELAPSED USER TIME (SEC)      =   0.0000    
       ELAPSED SYSTEM TIME (SEC)    =   0.0000    
       ELAPSED TOTAL CPU TIME (SEC) =   0.0000    
       ELAPSED WALLCLOCK TIME (SEC) =          0

               CONVERGENCE CHECKS FOR EQUILIBRIUM ITERATION     4


 AVERAGE FORCE                       119.       TIME AVG. FORCE        141.    
 LARGEST RESIDUAL FORCE             0.553       AT NODE      25119   DOF  1
 LARGEST INCREMENT OF DISP.         1.682E-03   AT NODE        541   DOF  2
 LARGEST CORRECTION TO DISP.        2.731E-05   AT NODE        541   DOF  2
 ESTIMATE OF DISP.    CORRECTION   -4.452E-06
 FORCE     EQUILIB. ACCEPTED BASED ON SMALL RESIDUAL AND ESTIMATED CORRECTION

 AVERAGE MOMENT                     8.682E-16   TIME AVG. MOMENT       16.5    
                                                (FROM FORCE     FIELD)
 LARGEST RESIDUAL MOMENT            1.735E-15   AT NODE   50000001   DOF  6
 LARGEST INCREMENT OF ROTATION      4.545E-05   AT NODE   50000001   DOF  6
 LARGEST CORRECTION TO ROTATION    -2.556E-07   AT NODE   50000001   DOF  6
          THERE IS ZERO MOMENT    EVERYWHERE

 ITERATION SUMMARY FOR THE INCREMENT:   4 TOTAL ITERATIONS, OF WHICH
   0 ARE SEVERE DISCONTINUITY ITERATIONS AND  4 ARE EQUILIBRIUM ITERATIONS.

 TIME INCREMENT COMPLETED  5.839E-03,  FRACTION OF STEP COMPLETED   1.00    
 STEP TIME COMPLETED        1.00    ,  TOTAL TIME COMPLETED         1.00    


          THE ANALYSIS HAS BEEN COMPLETED



     ANALYSIS SUMMARY:
     TOTAL OF         53  INCREMENTS
                      14  CUTBACKS IN AUTOMATIC INCREMENTATION
                     215  ITERATIONS INCLUDING CONTACT ITERATIONS IF PRESENT
                     215  PASSES THROUGH THE EQUATION SOLVER OF WHICH 
                     215  INVOLVE MATRIX DECOMPOSITION, INCLUDING
                       0  DECOMPOSITION(S) OF THE MASS MATRIX
                       1  REORDERING OF EQUATIONS TO MINIMIZE WAVEFRONT
                       0  ADDITIONAL RESIDUAL EVALUATIONS FOR LINE SEARCHES
                       0  ADDITIONAL OPERATOR EVALUATIONS FOR LINE SEARCHES
                       2  WARNING MESSAGES DURING USER INPUT PROCESSING
                      55  WARNING MESSAGES DURING ANALYSIS
                       0  ANALYSIS WARNINGS ARE NUMERICAL PROBLEM MESSAGES
                      26  ANALYSIS WARNINGS ARE NEGATIVE EIGENVALUE MESSAGES
                       0  ERROR MESSAGES



     JOB TIME SUMMARY
       USER TIME (SEC)      =   52.800    
       SYSTEM TIME (SEC)    =   3.9000    
       TOTAL CPU TIME (SEC) =   56.700    
       WALLCLOCK TIME (SEC) =        155
