 Abaqus/Standard 3DEXPERIENCE R2018x                  DATE 08-Nov-2023 TIME 14:38:16
 SUMMARY OF JOB INFORMATION:
 STEP  INC ATT SEVERE EQUIL TOTAL  TOTAL      STEP       INC OF       DOF    IF
               DISCON ITERS ITERS  TIME/    TIME/LPF    TIME/LPF    MONITOR RIKS
               ITERS               FREQ
   1     1   1     0     1     1  0.100      0.100      0.1000    
   1     2   1     0     3     3  0.200      0.200      0.1000    
   1     3   1     0     3     3  0.300      0.300      0.1000    
   1     4   1     0     3     3  0.400      0.400      0.1000    
   1     5   1     0     3     3  0.500      0.500      0.1000    
   1     6   1     0     3     3  0.600      0.600      0.1000    
   1     7   1     0     3     3  0.700      0.700      0.1000    
   1     8   1U    0     4     4  0.700      0.700      0.1000    
   1     8   2     0     3     3  0.725      0.725      0.02500   
   1     9   1     0     3     3  0.762      0.762      0.03750   
   1    10   1U    0     4     4  0.762      0.762      0.05625   
   1    10   2     0     3     3  0.777      0.777      0.01406   
   1    11   1     0     3     3  0.798      0.798      0.02109   
   1    12   1U    0     4     4  0.798      0.798      0.03164   
   1    12   2     0     3     3  0.806      0.806      0.007910  
   1    13   1     0     3     3  0.817      0.817      0.01187   
   1    14   1U    0     4     4  0.817      0.817      0.01780   
   1    14   2     0     2     2  0.822      0.822      0.004449  
   1    15   1     0     2     2  0.829      0.829      0.006674  
   1    16   1     0     3     3  0.839      0.839      0.01001   
   1    17   1U    0     4     4  0.839      0.839      0.01502   
   1    17   2     0     2     2  0.842      0.842      0.003754  
   1    18   1     0     2     2  0.848      0.848      0.005631  
   1    19   1     0     3     3  0.856      0.856      0.008447  
   1    20   1U    0     4     4  0.856      0.856      0.01267   
   1    20   2     0     2     2  0.860      0.860      0.003168  
   1    21   1     0     2     2  0.864      0.864      0.004751  
   1    22   1     0     3     3  0.871      0.871      0.007127  
   1    23   1U    0     5     5  0.871      0.871      0.01069   
   1    23   2     0     2     2  0.874      0.874      0.002673  
   1    24   1     0     2     2  0.878      0.878      0.004009  
   1    25   1     0     3     3  0.884      0.884      0.006014  
   1    26   1     0     5     5  0.893      0.893      0.009020  
   1    27   1U    0     4     4  0.893      0.893      0.009020  
   1    27   2     0     3     3  0.895      0.895      0.002255  
   1    28   1     0     3     3  0.898      0.898      0.002255  
   1    29   1     0     2     2  0.901      0.901      0.003383  
   1    30   1     0     3     3  0.906      0.906      0.005074  
   1    31   1     0     4     4  0.914      0.914      0.007611  
   1    32   1U    0     4     4  0.914      0.914      0.01142   
   1    32   2     0     2     2  0.917      0.917      0.002854  
   1    33   1     0     3     3  0.921      0.921      0.004281  
   1    34   1     0     5     5  0.927      0.927      0.006422  
   1    35   1     0     4     4  0.934      0.934      0.006422  
   1    36   1     0     4     4  0.940      0.940      0.006422  
   1    37   1U    0     6     6  0.940      0.940      0.009633  
   1    37   2     0     3     3  0.943      0.943      0.002408  
   1    38   1     0     3     3  0.946      0.946      0.003612  
   1    39   1     0     4     4  0.952      0.952      0.005418  
   1    40   1U    0     4     4  0.952      0.952      0.008127  
   1    40   2     0     3     3  0.954      0.954      0.002032  
   1    41   1     0     2     2  0.957      0.957      0.003048  
   1    42   1     0     4     4  0.961      0.961      0.004572  
   1    43   1U    0     4     4  0.961      0.961      0.006858  
   1    43   2     0     3     3  0.963      0.963      0.001714  
   1    44   1     0     2     2  0.966      0.966      0.002572  
   1    45   1     0     3     3  0.969      0.969      0.003857  
   1    46   1     0     4     4  0.975      0.975      0.005786  
   1    47   1U    0     4     4  0.975      0.975      0.008679  
   1    47   2     0     3     3  0.977      0.977      0.002170  
   1    48   1     0     3     3  0.981      0.981      0.003255  
   1    49   1     0     4     4  0.985      0.985      0.004882  
   1    50   1U    0     4     4  0.985      0.985      0.007323  
   1    50   2     0     2     2  0.987      0.987      0.001831  
   1    51   1     0     2     2  0.990      0.990      0.002746  
   1    52   1     0     4     4  0.994      0.994      0.004119  
   1    53   1     0     4     4  1.00       1.00       0.005839  
                          
 THE ANALYSIS HAS COMPLETED SUCCESSFULLY
