1

   Abaqus 3DEXPERIENCE R2018x                                  Date 07-Nov-2023   Time 12:32:25
   For use by AALTO UNIVERSITY under license from Dassault Systemes or its subsidiary.

 no Hydrogen, TSL over nominal Area                                              
 displacement-controlled traction                                                
 STEP    1     INCREMENT     1     STEP TIME    0.00    


                        S T E P       1     S T A T I C   A N A L Y S I S


          displacement-controlled traction                                                

     AUTOMATIC TIME CONTROL WITH -
          A SUGGESTED INITIAL TIME INCREMENT OF                5.000E-03
          AND A TOTAL TIME PERIOD OF                            1.00    
          THE MINIMUM TIME INCREMENT ALLOWED IS                1.000E-06
          THE MAXIMUM TIME INCREMENT ALLOWED IS                5.000E-03

     LINEAR EQUATION SOLVER TYPE         DIRECT SPARSE

 CONVERGENCE TOLERANCE PARAMETERS FOR FORCE    
     CRITERION FOR RESIDUAL FORCE     FOR A NONLINEAR PROBLEM          5.000E-03
     CRITERION FOR DISP.    CORRECTION IN A NONLINEAR PROBLEM          1.000E-02
     INITIAL VALUE OF TIME AVERAGE FORCE                               1.000E-02
     AVERAGE FORCE     IS TIME AVERAGE FORCE    
     ALTERNATE CRIT. FOR RESIDUAL FORCE     FOR A NONLINEAR PROBLEM    2.000E-02
     CRITERION FOR ZERO FORCE     RELATIVE TO TIME AVRG. FORCE         1.000E-05
     CRITERION FOR RESIDUAL FORCE     WHEN THERE IS ZERO FLUX          1.000E-05
     CRITERION FOR DISP.    CORRECTION WHEN THERE IS ZERO FLUX         1.000E-03
     CRITERION FOR RESIDUAL FORCE     FOR A LINEAR INCREMENT           1.000E-08
     FIELD CONVERSION RATIO                                             1.00    
     CRITERION FOR ZERO FORCE     REL. TO TIME AVRG. MAX. FORCE        1.000E-05
     CRITERION FOR ZERO DISP.    RELATIVE TO CHARACTERISTIC LENGTH     1.000E-08

     VOLUMETRIC STRAIN COMPATIBILITY TOLERANCE FOR HYBRID SOLIDS       1.000E-05
     AXIAL STRAIN COMPATIBILITY TOLERANCE FOR HYBRID BEAMS             1.000E-05
     TRANS. SHEAR STRAIN COMPATIBILITY TOLERANCE FOR HYBRID BEAMS      1.000E-05
     SOFT CONTACT CONSTRAINT COMPATIBILITY TOLERANCE FOR P>P0          5.000E-03
     SOFT CONTACT CONSTRAINT COMPATIBILITY TOLERANCE FOR P=0.0         0.100    
     CONTACT FORCE ERROR TOLERANCE FOR CONVERT SDI=YES                 1.00    
     DISPLACEMENT COMPATIBILITY TOLERANCE FOR DCOUP ELEMENTS           1.000E-05
     ROTATION COMPATIBILITY TOLERANCE FOR DCOUP ELEMENTS               1.000E-05

 EQUILIBRIUM WILL BE CHECKED FOR SEVERE DISCONTINUITY ITERATIONS

 TIME INCREMENTATION CONTROL PARAMETERS:
     FIRST EQUILIBRIUM ITERATION FOR CONSECUTIVE DIVERGENCE CHECK              4
     EQUILIBRIUM ITERATION AT WHICH LOG. CONVERGENCE RATE CHECK BEGINS         8
     EQUILIBRIUM ITERATION AFTER WHICH ALTERNATE RESIDUAL IS USED              9
     MAXIMUM EQUILIBRIUM ITERATIONS ALLOWED                                   16
     EQUILIBRIUM ITERATION COUNT FOR CUT-BACK IN NEXT INCREMENT               10
     MAXIMUM EQUILIB. ITERS IN TWO INCREMENTS FOR TIME INCREMENT INCREASE      4
     MAXIMUM ITERATIONS FOR SEVERE DISCONTINUITIES                            50
     MAXIMUM ATTEMPTS ALLOWED IN AN INCREMENT                                  5
     MAXIMUM DISCON. ITERS IN TWO INCREMENTS FOR TIME INCREMENT INCREASE      50
     MAXIMUM CONTACT AUGMENTATIONS FOR *SURFACE BEHAVIOR,AUGMENTED LAGRANGE   50
     CUT-BACK FACTOR AFTER DIVERGENCE                                 0.2500    
     CUT-BACK FACTOR FOR TOO SLOW CONVERGENCE                         0.5000    
     CUT-BACK FACTOR AFTER TOO MANY EQUILIBRIUM ITERATIONS            0.7500    
     CUT-BACK FACTOR AFTER TOO MANY SEVERE DISCONTINUITY ITERATIONS   0.2500    
     CUT-BACK FACTOR AFTER PROBLEMS IN ELEMENT ASSEMBLY               0.2500    
     INCREASE FACTOR AFTER TWO INCREMENTS THAT CONVERGE QUICKLY        1.500    
     MAX. TIME INCREMENT INCREASE FACTOR ALLOWED                       1.500    
     MAX. TIME INCREMENT INCREASE FACTOR ALLOWED (DYNAMICS)            1.250    
     MAX. TIME INCREMENT INCREASE FACTOR ALLOWED (DIFFUSION)           2.000    
     MINIMUM TIME INCREMENT RATIO FOR EXTRAPOLATION TO OCCUR          0.1000    
     MAX. RATIO OF TIME INCREMENT TO STABILITY LIMIT                   1.000    
     FRACTION OF STABILITY LIMIT FOR NEW TIME INCREMENT               0.9500    
     TIME INCREMENT INCREASE FACTOR BEFORE A TIME POINT                1.000    
     GLOBAL STABILIZATION CONTROL IS NOT USED

          PRINT OF INCREMENT NUMBER, TIME, ETC., EVERY    1  INCREMENTS

     THE MAXIMUM NUMBER OF INCREMENTS IN THIS STEP IS                    1000

     LINEAR EXTRAPOLATION WILL BE USED

     CHARACTERISTIC ELEMENT LENGTH      1.00    

     DETAILS REGARDING ACTUAL SOLUTION WAVEFRONT REQUESTED

     DETAILED OUTPUT OF DIAGNOSTICS TO DATABASE REQUESTED

     PRINT OF INCREMENT NUMBER, TIME, ETC., TO THE MESSAGE FILE EVERY     1  INCREMENTS

     COLLECTING MODEL CONSTRAINT INFORMATION FOR OVERCONSTRAINT CHECKS

     COLLECTING STEP CONSTRAINT INFORMATION FOR OVERCONSTRAINT CHECKS


  INCREMENT     1 STARTS. ATTEMPT NUMBER  1, TIME INCREMENT  5.000E-03

  NUMBER OF EQUATIONS =        12     NUMBER OF RHS =    1
  NUMBER OF FLOATING PT. OPERATIONS =  3.78E+02

     CHECK POINT   START OF SOLVER    

     CHECK POINT  END OF SOLVER       

       ELAPSED USER TIME (SEC)      =  0.10000    
       ELAPSED SYSTEM TIME (SEC)    =   0.0000    
       ELAPSED TOTAL CPU TIME (SEC) =  0.10000    
       ELAPSED WALLCLOCK TIME (SEC) =          0

               CONVERGENCE CHECKS FOR EQUILIBRIUM ITERATION     1


 AVERAGE FORCE                       86.1       TIME AVG. FORCE        86.1    
 LARGEST RESIDUAL FORCE            -1.540E-13   AT NODE          2   DOF  1
 LARGEST INCREMENT OF DISP.         1.500E-04   AT NODE          5   DOF  2
 LARGEST CORRECTION TO DISP.        1.500E-04   AT NODE          5   DOF  2
          THE FORCE     EQUILIBRIUM RESPONSE WAS LINEAR IN THIS INCREMENT

 ITERATION SUMMARY FOR THE INCREMENT:   1 TOTAL ITERATIONS, OF WHICH
   0 ARE SEVERE DISCONTINUITY ITERATIONS AND  1 ARE EQUILIBRIUM ITERATIONS.

 TIME INCREMENT COMPLETED  5.000E-03,  FRACTION OF STEP COMPLETED  5.000E-03
 STEP TIME COMPLETED       5.000E-03,  TOTAL TIME COMPLETED        5.000E-03


  INCREMENT     2 STARTS. ATTEMPT NUMBER  1, TIME INCREMENT  5.000E-03

  NUMBER OF EQUATIONS =        12     NUMBER OF RHS =    1
  NUMBER OF FLOATING PT. OPERATIONS =  3.78E+02

     CHECK POINT   START OF SOLVER    

     CHECK POINT  END OF SOLVER       

       ELAPSED USER TIME (SEC)      =   0.0000    
       ELAPSED SYSTEM TIME (SEC)    =   0.0000    
       ELAPSED TOTAL CPU TIME (SEC) =   0.0000    
       ELAPSED WALLCLOCK TIME (SEC) =          0

               CONVERGENCE CHECKS FOR EQUILIBRIUM ITERATION     1


 AVERAGE FORCE                       344.       TIME AVG. FORCE        215.    
 LARGEST RESIDUAL FORCE             3.554E-14   AT NODE          6   DOF  1
 LARGEST INCREMENT OF DISP.         1.500E-04   AT NODE          5   DOF  2
 LARGEST CORRECTION TO DISP.       -5.395E-19   AT NODE          2   DOF  1
          THE FORCE     EQUILIBRIUM RESPONSE WAS LINEAR IN THIS INCREMENT

 ITERATION SUMMARY FOR THE INCREMENT:   1 TOTAL ITERATIONS, OF WHICH
   0 ARE SEVERE DISCONTINUITY ITERATIONS AND  1 ARE EQUILIBRIUM ITERATIONS.

 TIME INCREMENT COMPLETED  5.000E-03,  FRACTION OF STEP COMPLETED  1.000E-02
 STEP TIME COMPLETED       1.000E-02,  TOTAL TIME COMPLETED        1.000E-02


  INCREMENT     3 STARTS. ATTEMPT NUMBER  1, TIME INCREMENT  5.000E-03

  NUMBER OF EQUATIONS =        12     NUMBER OF RHS =    1
  NUMBER OF FLOATING PT. OPERATIONS =  3.78E+02

     CHECK POINT   START OF SOLVER    

     CHECK POINT  END OF SOLVER       

       ELAPSED USER TIME (SEC)      =   0.0000    
       ELAPSED SYSTEM TIME (SEC)    =   0.0000    
       ELAPSED TOTAL CPU TIME (SEC) =   0.0000    
       ELAPSED WALLCLOCK TIME (SEC) =          0

               CONVERGENCE CHECKS FOR EQUILIBRIUM ITERATION     1


 AVERAGE FORCE                       516.       TIME AVG. FORCE        316.    
 LARGEST RESIDUAL FORCE            -1.137E-13   AT NODE          3   DOF  2
 LARGEST INCREMENT OF DISP.         1.500E-04   AT NODE          5   DOF  2
 LARGEST CORRECTION TO DISP.        2.788E-19   AT NODE          2   DOF  1
          THE FORCE     EQUILIBRIUM RESPONSE WAS LINEAR IN THIS INCREMENT

 ITERATION SUMMARY FOR THE INCREMENT:   1 TOTAL ITERATIONS, OF WHICH
   0 ARE SEVERE DISCONTINUITY ITERATIONS AND  1 ARE EQUILIBRIUM ITERATIONS.

 TIME INCREMENT COMPLETED  5.000E-03,  FRACTION OF STEP COMPLETED  1.500E-02
 STEP TIME COMPLETED       1.500E-02,  TOTAL TIME COMPLETED        1.500E-02


  INCREMENT     4 STARTS. ATTEMPT NUMBER  1, TIME INCREMENT  5.000E-03

  NUMBER OF EQUATIONS =        12     NUMBER OF RHS =    1
  NUMBER OF FLOATING PT. OPERATIONS =  3.78E+02

     CHECK POINT   START OF SOLVER    

     CHECK POINT  END OF SOLVER       

       ELAPSED USER TIME (SEC)      =   0.0000    
       ELAPSED SYSTEM TIME (SEC)    =   0.0000    
       ELAPSED TOTAL CPU TIME (SEC) =   0.0000    
       ELAPSED WALLCLOCK TIME (SEC) =          0

               CONVERGENCE CHECKS FOR EQUILIBRIUM ITERATION     1


 AVERAGE FORCE                       689.       TIME AVG. FORCE        409.    
 LARGEST RESIDUAL FORCE             1.137E-13   AT NODE          4   DOF  2
 LARGEST INCREMENT OF DISP.         1.500E-04   AT NODE          5   DOF  2
 LARGEST CORRECTION TO DISP.        1.084E-19   AT NODE          5   DOF  2
          THE FORCE     EQUILIBRIUM RESPONSE WAS LINEAR IN THIS INCREMENT

 ITERATION SUMMARY FOR THE INCREMENT:   1 TOTAL ITERATIONS, OF WHICH
   0 ARE SEVERE DISCONTINUITY ITERATIONS AND  1 ARE EQUILIBRIUM ITERATIONS.

 TIME INCREMENT COMPLETED  5.000E-03,  FRACTION OF STEP COMPLETED  2.000E-02
 STEP TIME COMPLETED       2.000E-02,  TOTAL TIME COMPLETED        2.000E-02


  INCREMENT     5 STARTS. ATTEMPT NUMBER  1, TIME INCREMENT  5.000E-03

  NUMBER OF EQUATIONS =        12     NUMBER OF RHS =    1
  NUMBER OF FLOATING PT. OPERATIONS =  3.78E+02

     CHECK POINT   START OF SOLVER    

     CHECK POINT  END OF SOLVER       

       ELAPSED USER TIME (SEC)      =   0.0000    
       ELAPSED SYSTEM TIME (SEC)    =   0.0000    
       ELAPSED TOTAL CPU TIME (SEC) =   0.0000    
       ELAPSED WALLCLOCK TIME (SEC) =          0

               CONVERGENCE CHECKS FOR EQUILIBRIUM ITERATION     1


 AVERAGE FORCE                       861.       TIME AVG. FORCE        499.    
 LARGEST RESIDUAL FORCE            -1.479E-13   AT NODE          4   DOF  1
 LARGEST INCREMENT OF DISP.         1.500E-04   AT NODE          5   DOF  2
 LARGEST CORRECTION TO DISP.        8.991E-20   AT NODE          4   DOF  1
          THE FORCE     EQUILIBRIUM RESPONSE WAS LINEAR IN THIS INCREMENT

 ITERATION SUMMARY FOR THE INCREMENT:   1 TOTAL ITERATIONS, OF WHICH
   0 ARE SEVERE DISCONTINUITY ITERATIONS AND  1 ARE EQUILIBRIUM ITERATIONS.

 TIME INCREMENT COMPLETED  5.000E-03,  FRACTION OF STEP COMPLETED  2.500E-02
 STEP TIME COMPLETED       2.500E-02,  TOTAL TIME COMPLETED        2.500E-02


  INCREMENT     6 STARTS. ATTEMPT NUMBER  1, TIME INCREMENT  5.000E-03

  NUMBER OF EQUATIONS =        12     NUMBER OF RHS =    1
  NUMBER OF FLOATING PT. OPERATIONS =  3.78E+02

     CHECK POINT   START OF SOLVER    

     CHECK POINT  END OF SOLVER       

       ELAPSED USER TIME (SEC)      =   0.0000    
       ELAPSED SYSTEM TIME (SEC)    =   0.0000    
       ELAPSED TOTAL CPU TIME (SEC) =   0.0000    
       ELAPSED WALLCLOCK TIME (SEC) =          0

               CONVERGENCE CHECKS FOR EQUILIBRIUM ITERATION     1


 AVERAGE FORCE                      1.033E+03   TIME AVG. FORCE        588.    
 LARGEST RESIDUAL FORCE            -7.679E-14   AT NODE          6   DOF  1
 LARGEST INCREMENT OF DISP.         1.500E-04   AT NODE          5   DOF  2
 LARGEST CORRECTION TO DISP.       -2.756E-19   AT NODE          4   DOF  1
          THE FORCE     EQUILIBRIUM RESPONSE WAS LINEAR IN THIS INCREMENT

 ITERATION SUMMARY FOR THE INCREMENT:   1 TOTAL ITERATIONS, OF WHICH
   0 ARE SEVERE DISCONTINUITY ITERATIONS AND  1 ARE EQUILIBRIUM ITERATIONS.

 TIME INCREMENT COMPLETED  5.000E-03,  FRACTION OF STEP COMPLETED  3.000E-02
 STEP TIME COMPLETED       3.000E-02,  TOTAL TIME COMPLETED        3.000E-02


  INCREMENT     7 STARTS. ATTEMPT NUMBER  1, TIME INCREMENT  5.000E-03

  NUMBER OF EQUATIONS =        12     NUMBER OF RHS =    1
  NUMBER OF FLOATING PT. OPERATIONS =  3.78E+02

     CHECK POINT   START OF SOLVER    

     CHECK POINT  END OF SOLVER       

       ELAPSED USER TIME (SEC)      =   0.0000    
       ELAPSED SYSTEM TIME (SEC)    =   0.0000    
       ELAPSED TOTAL CPU TIME (SEC) =   0.0000    
       ELAPSED WALLCLOCK TIME (SEC) =          0

               CONVERGENCE CHECKS FOR EQUILIBRIUM ITERATION     1


 AVERAGE FORCE                      1.205E+03   TIME AVG. FORCE        676.    
 LARGEST RESIDUAL FORCE             2.274E-13   AT NODE          3   DOF  2
 LARGEST INCREMENT OF DISP.         1.500E-04   AT NODE          5   DOF  2
 LARGEST CORRECTION TO DISP.       -2.168E-19   AT NODE          5   DOF  2
          THE FORCE     EQUILIBRIUM RESPONSE WAS LINEAR IN THIS INCREMENT

 ITERATION SUMMARY FOR THE INCREMENT:   1 TOTAL ITERATIONS, OF WHICH
   0 ARE SEVERE DISCONTINUITY ITERATIONS AND  1 ARE EQUILIBRIUM ITERATIONS.

 TIME INCREMENT COMPLETED  5.000E-03,  FRACTION OF STEP COMPLETED  3.500E-02
 STEP TIME COMPLETED       3.500E-02,  TOTAL TIME COMPLETED        3.500E-02


  INCREMENT     8 STARTS. ATTEMPT NUMBER  1, TIME INCREMENT  5.000E-03

  NUMBER OF EQUATIONS =        12     NUMBER OF RHS =    1
  NUMBER OF FLOATING PT. OPERATIONS =  3.78E+02

     CHECK POINT   START OF SOLVER    

     CHECK POINT  END OF SOLVER       

       ELAPSED USER TIME (SEC)      =   0.0000    
       ELAPSED SYSTEM TIME (SEC)    =   0.0000    
       ELAPSED TOTAL CPU TIME (SEC) =   0.0000    
       ELAPSED WALLCLOCK TIME (SEC) =          0

               CONVERGENCE CHECKS FOR EQUILIBRIUM ITERATION     1


 AVERAGE FORCE                      1.377E+03   TIME AVG. FORCE        764.    
 LARGEST RESIDUAL FORCE             5.734E-15   AT NODE          4   DOF  1
 LARGEST INCREMENT OF DISP.         1.500E-04   AT NODE          5   DOF  2
 LARGEST CORRECTION TO DISP.        2.168E-19   AT NODE          5   DOF  2
          THE FORCE     EQUILIBRIUM RESPONSE WAS LINEAR IN THIS INCREMENT

 ITERATION SUMMARY FOR THE INCREMENT:   1 TOTAL ITERATIONS, OF WHICH
   0 ARE SEVERE DISCONTINUITY ITERATIONS AND  1 ARE EQUILIBRIUM ITERATIONS.

 TIME INCREMENT COMPLETED  5.000E-03,  FRACTION OF STEP COMPLETED  4.000E-02
 STEP TIME COMPLETED       4.000E-02,  TOTAL TIME COMPLETED        4.000E-02


  INCREMENT     9 STARTS. ATTEMPT NUMBER  1, TIME INCREMENT  5.000E-03

  NUMBER OF EQUATIONS =        12     NUMBER OF RHS =    1
  NUMBER OF FLOATING PT. OPERATIONS =  3.78E+02

     CHECK POINT   START OF SOLVER    

     CHECK POINT  END OF SOLVER       

       ELAPSED USER TIME (SEC)      =   0.0000    
       ELAPSED SYSTEM TIME (SEC)    =   0.0000    
       ELAPSED TOTAL CPU TIME (SEC) =   0.0000    
       ELAPSED WALLCLOCK TIME (SEC) =          0

               CONVERGENCE CHECKS FOR EQUILIBRIUM ITERATION     1


 AVERAGE FORCE                      1.549E+03   TIME AVG. FORCE        851.    
 LARGEST RESIDUAL FORCE             2.274E-13   AT NODE          3   DOF  2
 LARGEST INCREMENT OF DISP.         1.500E-04   AT NODE          5   DOF  2
 LARGEST CORRECTION TO DISP.       -2.168E-19   AT NODE          5   DOF  2
          THE FORCE     EQUILIBRIUM RESPONSE WAS LINEAR IN THIS INCREMENT

 ITERATION SUMMARY FOR THE INCREMENT:   1 TOTAL ITERATIONS, OF WHICH
   0 ARE SEVERE DISCONTINUITY ITERATIONS AND  1 ARE EQUILIBRIUM ITERATIONS.

 TIME INCREMENT COMPLETED  5.000E-03,  FRACTION OF STEP COMPLETED  4.500E-02
 STEP TIME COMPLETED       4.500E-02,  TOTAL TIME COMPLETED        4.500E-02


  INCREMENT    10 STARTS. ATTEMPT NUMBER  1, TIME INCREMENT  5.000E-03

  NUMBER OF EQUATIONS =        12     NUMBER OF RHS =    1
  NUMBER OF FLOATING PT. OPERATIONS =  3.78E+02

     CHECK POINT   START OF SOLVER    

     CHECK POINT  END OF SOLVER       

       ELAPSED USER TIME (SEC)      =   0.0000    
       ELAPSED SYSTEM TIME (SEC)    =   0.0000    
       ELAPSED TOTAL CPU TIME (SEC) =   0.0000    
       ELAPSED WALLCLOCK TIME (SEC) =          0

               CONVERGENCE CHECKS FOR EQUILIBRIUM ITERATION     1


 AVERAGE FORCE                      1.722E+03   TIME AVG. FORCE        938.    
 LARGEST RESIDUAL FORCE             2.274E-13   AT NODE          3   DOF  2
 LARGEST INCREMENT OF DISP.         1.500E-04   AT NODE          5   DOF  2
 LARGEST CORRECTION TO DISP.        4.538E-20   AT NODE          6   DOF  1
          THE FORCE     EQUILIBRIUM RESPONSE WAS LINEAR IN THIS INCREMENT

 ITERATION SUMMARY FOR THE INCREMENT:   1 TOTAL ITERATIONS, OF WHICH
   0 ARE SEVERE DISCONTINUITY ITERATIONS AND  1 ARE EQUILIBRIUM ITERATIONS.

 TIME INCREMENT COMPLETED  5.000E-03,  FRACTION OF STEP COMPLETED  5.000E-02
 STEP TIME COMPLETED       5.000E-02,  TOTAL TIME COMPLETED        5.000E-02


  INCREMENT    11 STARTS. ATTEMPT NUMBER  1, TIME INCREMENT  5.000E-03

  NUMBER OF EQUATIONS =        12     NUMBER OF RHS =    1
  NUMBER OF FLOATING PT. OPERATIONS =  3.78E+02

     CHECK POINT   START OF SOLVER    

     CHECK POINT  END OF SOLVER       

       ELAPSED USER TIME (SEC)      =   0.0000    
       ELAPSED SYSTEM TIME (SEC)    =   0.0000    
       ELAPSED TOTAL CPU TIME (SEC) =   0.0000    
       ELAPSED WALLCLOCK TIME (SEC) =          0

               CONVERGENCE CHECKS FOR EQUILIBRIUM ITERATION     1


 AVERAGE FORCE                      1.894E+03   TIME AVG. FORCE       1.025E+03
 LARGEST RESIDUAL FORCE             1.478E-13   AT NODE          6   DOF  1
 LARGEST INCREMENT OF DISP.         1.500E-04   AT NODE          5   DOF  2
 LARGEST CORRECTION TO DISP.       -2.232E-19   AT NODE          6   DOF  1
          THE FORCE     EQUILIBRIUM RESPONSE WAS LINEAR IN THIS INCREMENT

 ITERATION SUMMARY FOR THE INCREMENT:   1 TOTAL ITERATIONS, OF WHICH
   0 ARE SEVERE DISCONTINUITY ITERATIONS AND  1 ARE EQUILIBRIUM ITERATIONS.

 TIME INCREMENT COMPLETED  5.000E-03,  FRACTION OF STEP COMPLETED  5.500E-02
 STEP TIME COMPLETED       5.500E-02,  TOTAL TIME COMPLETED        5.500E-02


  INCREMENT    12 STARTS. ATTEMPT NUMBER  1, TIME INCREMENT  5.000E-03

  NUMBER OF EQUATIONS =        12     NUMBER OF RHS =    1
  NUMBER OF FLOATING PT. OPERATIONS =  3.78E+02

     CHECK POINT   START OF SOLVER    

     CHECK POINT  END OF SOLVER       

       ELAPSED USER TIME (SEC)      =   0.0000    
       ELAPSED SYSTEM TIME (SEC)    =   0.0000    
       ELAPSED TOTAL CPU TIME (SEC) =   0.0000    
       ELAPSED WALLCLOCK TIME (SEC) =          0

               CONVERGENCE CHECKS FOR EQUILIBRIUM ITERATION     1


 AVERAGE FORCE                      2.066E+03   TIME AVG. FORCE       1.112E+03
 LARGEST RESIDUAL FORCE            -1.478E-13   AT NODE          6   DOF  1
 LARGEST INCREMENT OF DISP.         1.500E-04   AT NODE          5   DOF  2
 LARGEST CORRECTION TO DISP.        3.243E-19   AT NODE          6   DOF  1
          THE FORCE     EQUILIBRIUM RESPONSE WAS LINEAR IN THIS INCREMENT

 ITERATION SUMMARY FOR THE INCREMENT:   1 TOTAL ITERATIONS, OF WHICH
   0 ARE SEVERE DISCONTINUITY ITERATIONS AND  1 ARE EQUILIBRIUM ITERATIONS.

 TIME INCREMENT COMPLETED  5.000E-03,  FRACTION OF STEP COMPLETED  6.000E-02
 STEP TIME COMPLETED       6.000E-02,  TOTAL TIME COMPLETED        6.000E-02


  INCREMENT    13 STARTS. ATTEMPT NUMBER  1, TIME INCREMENT  5.000E-03

  NUMBER OF EQUATIONS =        12     NUMBER OF RHS =    1
  NUMBER OF FLOATING PT. OPERATIONS =  3.78E+02

     CHECK POINT   START OF SOLVER    

     CHECK POINT  END OF SOLVER       

       ELAPSED USER TIME (SEC)      =   0.0000    
       ELAPSED SYSTEM TIME (SEC)    =   0.0000    
       ELAPSED TOTAL CPU TIME (SEC) =   0.0000    
       ELAPSED WALLCLOCK TIME (SEC) =          0

               CONVERGENCE CHECKS FOR EQUILIBRIUM ITERATION     1


 AVERAGE FORCE                      2.238E+03   TIME AVG. FORCE       1.199E+03
 LARGEST RESIDUAL FORCE            -4.547E-13   AT NODE          3   DOF  2
 LARGEST INCREMENT OF DISP.         1.500E-04   AT NODE          5   DOF  2
 LARGEST CORRECTION TO DISP.       -2.273E-19   AT NODE          6   DOF  1
          THE FORCE     EQUILIBRIUM RESPONSE WAS LINEAR IN THIS INCREMENT

 ITERATION SUMMARY FOR THE INCREMENT:   1 TOTAL ITERATIONS, OF WHICH
   0 ARE SEVERE DISCONTINUITY ITERATIONS AND  1 ARE EQUILIBRIUM ITERATIONS.

 TIME INCREMENT COMPLETED  5.000E-03,  FRACTION OF STEP COMPLETED  6.500E-02
 STEP TIME COMPLETED       6.500E-02,  TOTAL TIME COMPLETED        6.500E-02


  INCREMENT    14 STARTS. ATTEMPT NUMBER  1, TIME INCREMENT  5.000E-03

  NUMBER OF EQUATIONS =        12     NUMBER OF RHS =    1
  NUMBER OF FLOATING PT. OPERATIONS =  3.78E+02

     CHECK POINT   START OF SOLVER    

     CHECK POINT  END OF SOLVER       

       ELAPSED USER TIME (SEC)      =   0.0000    
       ELAPSED SYSTEM TIME (SEC)    =   0.0000    
       ELAPSED TOTAL CPU TIME (SEC) =   0.0000    
       ELAPSED WALLCLOCK TIME (SEC) =          0

               CONVERGENCE CHECKS FOR EQUILIBRIUM ITERATION     1


 AVERAGE FORCE                      2.410E+03   TIME AVG. FORCE       1.285E+03
 LARGEST RESIDUAL FORCE             4.547E-13   AT NODE          3   DOF  2
 LARGEST INCREMENT OF DISP.         1.500E-04   AT NODE          5   DOF  2
 LARGEST CORRECTION TO DISP.        2.168E-19   AT NODE          5   DOF  2
          THE FORCE     EQUILIBRIUM RESPONSE WAS LINEAR IN THIS INCREMENT

 ITERATION SUMMARY FOR THE INCREMENT:   1 TOTAL ITERATIONS, OF WHICH
   0 ARE SEVERE DISCONTINUITY ITERATIONS AND  1 ARE EQUILIBRIUM ITERATIONS.

 TIME INCREMENT COMPLETED  5.000E-03,  FRACTION OF STEP COMPLETED  7.000E-02
 STEP TIME COMPLETED       7.000E-02,  TOTAL TIME COMPLETED        7.000E-02


  INCREMENT    15 STARTS. ATTEMPT NUMBER  1, TIME INCREMENT  5.000E-03

  NUMBER OF EQUATIONS =        12     NUMBER OF RHS =    1
  NUMBER OF FLOATING PT. OPERATIONS =  3.78E+02

     CHECK POINT   START OF SOLVER    

     CHECK POINT  END OF SOLVER       

       ELAPSED USER TIME (SEC)      =   0.0000    
       ELAPSED SYSTEM TIME (SEC)    =   0.0000    
       ELAPSED TOTAL CPU TIME (SEC) =   0.0000    
       ELAPSED WALLCLOCK TIME (SEC) =          0

               CONVERGENCE CHECKS FOR EQUILIBRIUM ITERATION     1


 AVERAGE FORCE                      2.582E+03   TIME AVG. FORCE       1.372E+03
 LARGEST RESIDUAL FORCE            -4.547E-13   AT NODE          3   DOF  2
 LARGEST INCREMENT OF DISP.         1.500E-04   AT NODE          5   DOF  2
 LARGEST CORRECTION TO DISP.       -2.992E-19   AT NODE          6   DOF  1
          THE FORCE     EQUILIBRIUM RESPONSE WAS LINEAR IN THIS INCREMENT

 ITERATION SUMMARY FOR THE INCREMENT:   1 TOTAL ITERATIONS, OF WHICH
   0 ARE SEVERE DISCONTINUITY ITERATIONS AND  1 ARE EQUILIBRIUM ITERATIONS.

 TIME INCREMENT COMPLETED  5.000E-03,  FRACTION OF STEP COMPLETED  7.500E-02
 STEP TIME COMPLETED       7.500E-02,  TOTAL TIME COMPLETED        7.500E-02


  INCREMENT    16 STARTS. ATTEMPT NUMBER  1, TIME INCREMENT  5.000E-03

  NUMBER OF EQUATIONS =        12     NUMBER OF RHS =    1
  NUMBER OF FLOATING PT. OPERATIONS =  3.78E+02

     CHECK POINT   START OF SOLVER    

     CHECK POINT  END OF SOLVER       

       ELAPSED USER TIME (SEC)      =   0.0000    
       ELAPSED SYSTEM TIME (SEC)    =   0.0000    
       ELAPSED TOTAL CPU TIME (SEC) =   0.0000    
       ELAPSED WALLCLOCK TIME (SEC) =          0

               CONVERGENCE CHECKS FOR EQUILIBRIUM ITERATION     1


 AVERAGE FORCE                      2.755E+03   TIME AVG. FORCE       1.458E+03
 LARGEST RESIDUAL FORCE             9.095E-13   AT NODE          3   DOF  2
 LARGEST INCREMENT OF DISP.         1.500E-04   AT NODE          5   DOF  2
 LARGEST CORRECTION TO DISP.       -8.674E-19   AT NODE          5   DOF  2
          THE FORCE     EQUILIBRIUM RESPONSE WAS LINEAR IN THIS INCREMENT

 ITERATION SUMMARY FOR THE INCREMENT:   1 TOTAL ITERATIONS, OF WHICH
   0 ARE SEVERE DISCONTINUITY ITERATIONS AND  1 ARE EQUILIBRIUM ITERATIONS.

 TIME INCREMENT COMPLETED  5.000E-03,  FRACTION OF STEP COMPLETED  8.000E-02
 STEP TIME COMPLETED       8.000E-02,  TOTAL TIME COMPLETED        8.000E-02


  INCREMENT    17 STARTS. ATTEMPT NUMBER  1, TIME INCREMENT  5.000E-03

  NUMBER OF EQUATIONS =        12     NUMBER OF RHS =    1
  NUMBER OF FLOATING PT. OPERATIONS =  3.78E+02

     CHECK POINT   START OF SOLVER    

     CHECK POINT  END OF SOLVER       

       ELAPSED USER TIME (SEC)      =   0.0000    
       ELAPSED SYSTEM TIME (SEC)    =   0.0000    
       ELAPSED TOTAL CPU TIME (SEC) =   0.0000    
       ELAPSED WALLCLOCK TIME (SEC) =          0

               CONVERGENCE CHECKS FOR EQUILIBRIUM ITERATION     1


 AVERAGE FORCE                      2.927E+03   TIME AVG. FORCE       1.544E+03
 LARGEST RESIDUAL FORCE             2.901E-13   AT NODE          6   DOF  1
 LARGEST INCREMENT OF DISP.         1.500E-04   AT NODE          5   DOF  2
 LARGEST CORRECTION TO DISP.       -5.653E-19   AT NODE          6   DOF  1
          THE FORCE     EQUILIBRIUM RESPONSE WAS LINEAR IN THIS INCREMENT

 ITERATION SUMMARY FOR THE INCREMENT:   1 TOTAL ITERATIONS, OF WHICH
   0 ARE SEVERE DISCONTINUITY ITERATIONS AND  1 ARE EQUILIBRIUM ITERATIONS.

 TIME INCREMENT COMPLETED  5.000E-03,  FRACTION OF STEP COMPLETED  8.500E-02
 STEP TIME COMPLETED       8.500E-02,  TOTAL TIME COMPLETED        8.500E-02


  INCREMENT    18 STARTS. ATTEMPT NUMBER  1, TIME INCREMENT  5.000E-03

  NUMBER OF EQUATIONS =        12     NUMBER OF RHS =    1
  NUMBER OF FLOATING PT. OPERATIONS =  3.78E+02

     CHECK POINT   START OF SOLVER    

     CHECK POINT  END OF SOLVER       

       ELAPSED USER TIME (SEC)      =   0.0000    
       ELAPSED SYSTEM TIME (SEC)    =   0.0000    
       ELAPSED TOTAL CPU TIME (SEC) =   0.0000    
       ELAPSED WALLCLOCK TIME (SEC) =          0

               CONVERGENCE CHECKS FOR EQUILIBRIUM ITERATION     1


 AVERAGE FORCE                      3.099E+03   TIME AVG. FORCE       1.631E+03
 LARGEST RESIDUAL FORCE             9.095E-13   AT NODE          3   DOF  2
 LARGEST INCREMENT OF DISP.         1.500E-04   AT NODE          5   DOF  2
 LARGEST CORRECTION TO DISP.        7.679E-19   AT NODE          6   DOF  1
          THE FORCE     EQUILIBRIUM RESPONSE WAS LINEAR IN THIS INCREMENT

 ITERATION SUMMARY FOR THE INCREMENT:   1 TOTAL ITERATIONS, OF WHICH
   0 ARE SEVERE DISCONTINUITY ITERATIONS AND  1 ARE EQUILIBRIUM ITERATIONS.

 TIME INCREMENT COMPLETED  5.000E-03,  FRACTION OF STEP COMPLETED  9.000E-02
 STEP TIME COMPLETED       9.000E-02,  TOTAL TIME COMPLETED        9.000E-02


  INCREMENT    19 STARTS. ATTEMPT NUMBER  1, TIME INCREMENT  5.000E-03

  NUMBER OF EQUATIONS =        12     NUMBER OF RHS =    1
  NUMBER OF FLOATING PT. OPERATIONS =  3.78E+02

     CHECK POINT   START OF SOLVER    

     CHECK POINT  END OF SOLVER       

       ELAPSED USER TIME (SEC)      =   0.0000    
       ELAPSED SYSTEM TIME (SEC)    =   0.0000    
       ELAPSED TOTAL CPU TIME (SEC) =   0.0000    
       ELAPSED WALLCLOCK TIME (SEC) =          0

               CONVERGENCE CHECKS FOR EQUILIBRIUM ITERATION     1


 AVERAGE FORCE                      3.271E+03   TIME AVG. FORCE       1.717E+03
 LARGEST RESIDUAL FORCE             5.742E-13   AT NODE          6   DOF  1
 LARGEST INCREMENT OF DISP.         1.500E-04   AT NODE          5   DOF  2
 LARGEST CORRECTION TO DISP.       -9.538E-19   AT NODE          6   DOF  1
          THE FORCE     EQUILIBRIUM RESPONSE WAS LINEAR IN THIS INCREMENT

 ITERATION SUMMARY FOR THE INCREMENT:   1 TOTAL ITERATIONS, OF WHICH
   0 ARE SEVERE DISCONTINUITY ITERATIONS AND  1 ARE EQUILIBRIUM ITERATIONS.

 TIME INCREMENT COMPLETED  5.000E-03,  FRACTION OF STEP COMPLETED  9.500E-02
 STEP TIME COMPLETED       9.500E-02,  TOTAL TIME COMPLETED        9.500E-02


  INCREMENT    20 STARTS. ATTEMPT NUMBER  1, TIME INCREMENT  5.000E-03

  NUMBER OF EQUATIONS =        12     NUMBER OF RHS =    1
  NUMBER OF FLOATING PT. OPERATIONS =  3.78E+02

     CHECK POINT   START OF SOLVER    

     CHECK POINT  END OF SOLVER       

       ELAPSED USER TIME (SEC)      =   0.0000    
       ELAPSED SYSTEM TIME (SEC)    =   0.0000    
       ELAPSED TOTAL CPU TIME (SEC) =   0.0000    
       ELAPSED WALLCLOCK TIME (SEC) =          0

               CONVERGENCE CHECKS FOR EQUILIBRIUM ITERATION     1


 AVERAGE FORCE                      3.443E+03   TIME AVG. FORCE       1.803E+03
 LARGEST RESIDUAL FORCE            -2.900E-13   AT NODE          6   DOF  1
 LARGEST INCREMENT OF DISP.         1.500E-04   AT NODE          5   DOF  2
 LARGEST CORRECTION TO DISP.        7.608E-19   AT NODE          6   DOF  1
          THE FORCE     EQUILIBRIUM RESPONSE WAS LINEAR IN THIS INCREMENT

 ITERATION SUMMARY FOR THE INCREMENT:   1 TOTAL ITERATIONS, OF WHICH
   0 ARE SEVERE DISCONTINUITY ITERATIONS AND  1 ARE EQUILIBRIUM ITERATIONS.

 TIME INCREMENT COMPLETED  5.000E-03,  FRACTION OF STEP COMPLETED  0.100    
 STEP TIME COMPLETED       0.100    ,  TOTAL TIME COMPLETED        0.100    


  INCREMENT    21 STARTS. ATTEMPT NUMBER  1, TIME INCREMENT  5.000E-03

  NUMBER OF EQUATIONS =        12     NUMBER OF RHS =    1
  NUMBER OF FLOATING PT. OPERATIONS =  3.78E+02

     CHECK POINT   START OF SOLVER    

     CHECK POINT  END OF SOLVER       

       ELAPSED USER TIME (SEC)      =   0.0000    
       ELAPSED SYSTEM TIME (SEC)    =  0.10000    
       ELAPSED TOTAL CPU TIME (SEC) =  0.10000    
       ELAPSED WALLCLOCK TIME (SEC) =          0

               CONVERGENCE CHECKS FOR EQUILIBRIUM ITERATION     1


 AVERAGE FORCE                      3.615E+03   TIME AVG. FORCE       1.890E+03
 LARGEST RESIDUAL FORCE             9.095E-13   AT NODE          3   DOF  2
 LARGEST INCREMENT OF DISP.         1.500E-04   AT NODE          5   DOF  2
 LARGEST CORRECTION TO DISP.       -9.617E-19   AT NODE          6   DOF  1
          THE FORCE     EQUILIBRIUM RESPONSE WAS LINEAR IN THIS INCREMENT

 ITERATION SUMMARY FOR THE INCREMENT:   1 TOTAL ITERATIONS, OF WHICH
   0 ARE SEVERE DISCONTINUITY ITERATIONS AND  1 ARE EQUILIBRIUM ITERATIONS.

 TIME INCREMENT COMPLETED  5.000E-03,  FRACTION OF STEP COMPLETED  0.105    
 STEP TIME COMPLETED       0.105    ,  TOTAL TIME COMPLETED        0.105    


  INCREMENT    22 STARTS. ATTEMPT NUMBER  1, TIME INCREMENT  5.000E-03

  NUMBER OF EQUATIONS =        12     NUMBER OF RHS =    1
  NUMBER OF FLOATING PT. OPERATIONS =  3.78E+02

     CHECK POINT   START OF SOLVER    

     CHECK POINT  END OF SOLVER       

       ELAPSED USER TIME (SEC)      =   0.0000    
       ELAPSED SYSTEM TIME (SEC)    =   0.0000    
       ELAPSED TOTAL CPU TIME (SEC) =   0.0000    
       ELAPSED WALLCLOCK TIME (SEC) =          0

               CONVERGENCE CHECKS FOR EQUILIBRIUM ITERATION     1


 AVERAGE FORCE                      3.788E+03   TIME AVG. FORCE       1.976E+03
 LARGEST RESIDUAL FORCE            -2.898E-13   AT NODE          6   DOF  1
 LARGEST INCREMENT OF DISP.         1.500E-04   AT NODE          5   DOF  2
 LARGEST CORRECTION TO DISP.        1.179E-18   AT NODE          6   DOF  1
          THE FORCE     EQUILIBRIUM RESPONSE WAS LINEAR IN THIS INCREMENT

 ITERATION SUMMARY FOR THE INCREMENT:   1 TOTAL ITERATIONS, OF WHICH
   0 ARE SEVERE DISCONTINUITY ITERATIONS AND  1 ARE EQUILIBRIUM ITERATIONS.

 TIME INCREMENT COMPLETED  5.000E-03,  FRACTION OF STEP COMPLETED  0.110    
 STEP TIME COMPLETED       0.110    ,  TOTAL TIME COMPLETED        0.110    


  INCREMENT    23 STARTS. ATTEMPT NUMBER  1, TIME INCREMENT  5.000E-03

  NUMBER OF EQUATIONS =        12     NUMBER OF RHS =    1
  NUMBER OF FLOATING PT. OPERATIONS =  3.78E+02

     CHECK POINT   START OF SOLVER    

     CHECK POINT  END OF SOLVER       

       ELAPSED USER TIME (SEC)      =   0.0000    
       ELAPSED SYSTEM TIME (SEC)    =   0.0000    
       ELAPSED TOTAL CPU TIME (SEC) =   0.0000    
       ELAPSED WALLCLOCK TIME (SEC) =          0

               CONVERGENCE CHECKS FOR EQUILIBRIUM ITERATION     1


 AVERAGE FORCE                      3.960E+03   TIME AVG. FORCE       2.062E+03
 LARGEST RESIDUAL FORCE             4.547E-13   AT NODE          3   DOF  2
 LARGEST INCREMENT OF DISP.         1.500E-04   AT NODE          5   DOF  2
 LARGEST CORRECTION TO DISP.       -6.139E-19   AT NODE          6   DOF  1
          THE FORCE     EQUILIBRIUM RESPONSE WAS LINEAR IN THIS INCREMENT

 ITERATION SUMMARY FOR THE INCREMENT:   1 TOTAL ITERATIONS, OF WHICH
   0 ARE SEVERE DISCONTINUITY ITERATIONS AND  1 ARE EQUILIBRIUM ITERATIONS.

 TIME INCREMENT COMPLETED  5.000E-03,  FRACTION OF STEP COMPLETED  0.115    
 STEP TIME COMPLETED       0.115    ,  TOTAL TIME COMPLETED        0.115    


  INCREMENT    24 STARTS. ATTEMPT NUMBER  1, TIME INCREMENT  5.000E-03

  NUMBER OF EQUATIONS =        12     NUMBER OF RHS =    1
  NUMBER OF FLOATING PT. OPERATIONS =  3.78E+02

     CHECK POINT   START OF SOLVER    

     CHECK POINT  END OF SOLVER       

       ELAPSED USER TIME (SEC)      =   0.0000    
       ELAPSED SYSTEM TIME (SEC)    =   0.0000    
       ELAPSED TOTAL CPU TIME (SEC) =   0.0000    
       ELAPSED WALLCLOCK TIME (SEC) =          0

               CONVERGENCE CHECKS FOR EQUILIBRIUM ITERATION     1


 AVERAGE FORCE                      2.703E+03   TIME AVG. FORCE       2.089E+03
 LARGEST RESIDUAL FORCE             -13.3       AT NODE          3   DOF  2
 LARGEST INCREMENT OF DISP.         1.500E-04   AT NODE          5   DOF  2
 LARGEST CORRECTION TO DISP.       -3.268E-05   AT NODE          6   DOF  1
          FORCE     EQUILIBRIUM NOT ACHIEVED WITHIN TOLERANCE.

  NUMBER OF EQUATIONS =        12     NUMBER OF RHS =    1
  NUMBER OF FLOATING PT. OPERATIONS =  3.78E+02

     CHECK POINT   START OF SOLVER    

     CHECK POINT  END OF SOLVER       

       ELAPSED USER TIME (SEC)      =   0.0000    
       ELAPSED SYSTEM TIME (SEC)    =   0.0000    
       ELAPSED TOTAL CPU TIME (SEC) =   0.0000    
       ELAPSED WALLCLOCK TIME (SEC) =          0

               CONVERGENCE CHECKS FOR EQUILIBRIUM ITERATION     2


 AVERAGE FORCE                      4.034E+03   TIME AVG. FORCE       2.144E+03
 LARGEST RESIDUAL FORCE            -5.505E-03   AT NODE          6   DOF  1
 LARGEST INCREMENT OF DISP.         1.500E-04   AT NODE          5   DOF  2
 LARGEST CORRECTION TO DISP.       -9.628E-06   AT NODE          2   DOF  1
 ESTIMATE OF DISP.    CORRECTION   -3.977E-09
 FORCE     EQUILIB. ACCEPTED BASED ON SMALL RESIDUAL AND ESTIMATED CORRECTION

 ITERATION SUMMARY FOR THE INCREMENT:   2 TOTAL ITERATIONS, OF WHICH
   0 ARE SEVERE DISCONTINUITY ITERATIONS AND  2 ARE EQUILIBRIUM ITERATIONS.

 TIME INCREMENT COMPLETED  5.000E-03,  FRACTION OF STEP COMPLETED  0.120    
 STEP TIME COMPLETED       0.120    ,  TOTAL TIME COMPLETED        0.120    


  INCREMENT    25 STARTS. ATTEMPT NUMBER  1, TIME INCREMENT  5.000E-03

  NUMBER OF EQUATIONS =        12     NUMBER OF RHS =    1
  NUMBER OF FLOATING PT. OPERATIONS =  3.78E+02

     CHECK POINT   START OF SOLVER    

     CHECK POINT  END OF SOLVER       

       ELAPSED USER TIME (SEC)      =   0.0000    
       ELAPSED SYSTEM TIME (SEC)    =   0.0000    
       ELAPSED TOTAL CPU TIME (SEC) =   0.0000    
       ELAPSED WALLCLOCK TIME (SEC) =          0

               CONVERGENCE CHECKS FOR EQUILIBRIUM ITERATION     1


 AVERAGE FORCE                      2.707E+03   TIME AVG. FORCE       2.167E+03
 LARGEST RESIDUAL FORCE            -2.493E-02   AT NODE          6   DOF  1
 LARGEST INCREMENT OF DISP.         1.500E-04   AT NODE          5   DOF  2
 LARGEST CORRECTION TO DISP.       -2.098E-05   AT NODE          2   DOF  1
 ESTIMATE OF DISP.    CORRECTION   -1.816E-08
 FORCE     EQUILIB. ACCEPTED BASED ON SMALL RESIDUAL AND ESTIMATED CORRECTION

 ITERATION SUMMARY FOR THE INCREMENT:   1 TOTAL ITERATIONS, OF WHICH
   0 ARE SEVERE DISCONTINUITY ITERATIONS AND  1 ARE EQUILIBRIUM ITERATIONS.

 TIME INCREMENT COMPLETED  5.000E-03,  FRACTION OF STEP COMPLETED  0.125    
 STEP TIME COMPLETED       0.125    ,  TOTAL TIME COMPLETED        0.125    


  INCREMENT    26 STARTS. ATTEMPT NUMBER  1, TIME INCREMENT  5.000E-03

  NUMBER OF EQUATIONS =        12     NUMBER OF RHS =    1
  NUMBER OF FLOATING PT. OPERATIONS =  3.78E+02

     CHECK POINT   START OF SOLVER    

     CHECK POINT  END OF SOLVER       

       ELAPSED USER TIME (SEC)      =   0.0000    
       ELAPSED SYSTEM TIME (SEC)    =   0.0000    
       ELAPSED TOTAL CPU TIME (SEC) =   0.0000    
       ELAPSED WALLCLOCK TIME (SEC) =          0

               CONVERGENCE CHECKS FOR EQUILIBRIUM ITERATION     1


 AVERAGE FORCE                      4.086E+03   TIME AVG. FORCE       2.241E+03
 LARGEST RESIDUAL FORCE            -2.994E-05   AT NODE          4   DOF  1
 LARGEST INCREMENT OF DISP.         1.500E-04   AT NODE          5   DOF  2
 LARGEST CORRECTION TO DISP.       -7.412E-07   AT NODE          2   DOF  1
          THE FORCE     EQUILIBRIUM EQUATIONS HAVE CONVERGED

 ITERATION SUMMARY FOR THE INCREMENT:   1 TOTAL ITERATIONS, OF WHICH
   0 ARE SEVERE DISCONTINUITY ITERATIONS AND  1 ARE EQUILIBRIUM ITERATIONS.

 TIME INCREMENT COMPLETED  5.000E-03,  FRACTION OF STEP COMPLETED  0.130    
 STEP TIME COMPLETED       0.130    ,  TOTAL TIME COMPLETED        0.130    


  INCREMENT    27 STARTS. ATTEMPT NUMBER  1, TIME INCREMENT  5.000E-03

  NUMBER OF EQUATIONS =        12     NUMBER OF RHS =    1
  NUMBER OF FLOATING PT. OPERATIONS =  3.78E+02

     CHECK POINT   START OF SOLVER    

     CHECK POINT  END OF SOLVER       

       ELAPSED USER TIME (SEC)      =   0.0000    
       ELAPSED SYSTEM TIME (SEC)    =   0.0000    
       ELAPSED TOTAL CPU TIME (SEC) =   0.0000    
       ELAPSED WALLCLOCK TIME (SEC) =          0

               CONVERGENCE CHECKS FOR EQUILIBRIUM ITERATION     1


 AVERAGE FORCE                      4.111E+03   TIME AVG. FORCE       2.310E+03
 LARGEST RESIDUAL FORCE            -2.223E-05   AT NODE          6   DOF  1
 LARGEST INCREMENT OF DISP.         1.500E-04   AT NODE          5   DOF  2
 LARGEST CORRECTION TO DISP.       -6.442E-07   AT NODE          6   DOF  1
          THE FORCE     EQUILIBRIUM RESPONSE WAS LINEAR IN THIS INCREMENT

 ITERATION SUMMARY FOR THE INCREMENT:   1 TOTAL ITERATIONS, OF WHICH
   0 ARE SEVERE DISCONTINUITY ITERATIONS AND  1 ARE EQUILIBRIUM ITERATIONS.

 TIME INCREMENT COMPLETED  5.000E-03,  FRACTION OF STEP COMPLETED  0.135    
 STEP TIME COMPLETED       0.135    ,  TOTAL TIME COMPLETED        0.135    


  INCREMENT    28 STARTS. ATTEMPT NUMBER  1, TIME INCREMENT  5.000E-03

  NUMBER OF EQUATIONS =        12     NUMBER OF RHS =    1
  NUMBER OF FLOATING PT. OPERATIONS =  3.78E+02

     CHECK POINT   START OF SOLVER    

     CHECK POINT  END OF SOLVER       

       ELAPSED USER TIME (SEC)      =   0.0000    
       ELAPSED SYSTEM TIME (SEC)    =   0.0000    
       ELAPSED TOTAL CPU TIME (SEC) =   0.0000    
       ELAPSED WALLCLOCK TIME (SEC) =          0

               CONVERGENCE CHECKS FOR EQUILIBRIUM ITERATION     1


 AVERAGE FORCE                      4.136E+03   TIME AVG. FORCE       2.375E+03
 LARGEST RESIDUAL FORCE            -2.412E-03   AT NODE          4   DOF  1
 LARGEST INCREMENT OF DISP.         1.500E-04   AT NODE          5   DOF  2
 LARGEST CORRECTION TO DISP.       -6.289E-07   AT NODE          2   DOF  1
          THE FORCE     EQUILIBRIUM EQUATIONS HAVE CONVERGED

 ITERATION SUMMARY FOR THE INCREMENT:   1 TOTAL ITERATIONS, OF WHICH
   0 ARE SEVERE DISCONTINUITY ITERATIONS AND  1 ARE EQUILIBRIUM ITERATIONS.

 TIME INCREMENT COMPLETED  5.000E-03,  FRACTION OF STEP COMPLETED  0.140    
 STEP TIME COMPLETED       0.140    ,  TOTAL TIME COMPLETED        0.140    


  INCREMENT    29 STARTS. ATTEMPT NUMBER  1, TIME INCREMENT  5.000E-03

  NUMBER OF EQUATIONS =        12     NUMBER OF RHS =    1
  NUMBER OF FLOATING PT. OPERATIONS =  3.78E+02

     CHECK POINT   START OF SOLVER    

     CHECK POINT  END OF SOLVER       

       ELAPSED USER TIME (SEC)      =   0.0000    
       ELAPSED SYSTEM TIME (SEC)    =   0.0000    
       ELAPSED TOTAL CPU TIME (SEC) =   0.0000    
       ELAPSED WALLCLOCK TIME (SEC) =          0

               CONVERGENCE CHECKS FOR EQUILIBRIUM ITERATION     1


 AVERAGE FORCE                      4.161E+03   TIME AVG. FORCE       2.437E+03
 LARGEST RESIDUAL FORCE            -1.879E-05   AT NODE          4   DOF  1
 LARGEST INCREMENT OF DISP.         1.500E-04   AT NODE          5   DOF  2
 LARGEST CORRECTION TO DISP.       -6.021E-07   AT NODE          4   DOF  1
          THE FORCE     EQUILIBRIUM RESPONSE WAS LINEAR IN THIS INCREMENT

 ITERATION SUMMARY FOR THE INCREMENT:   1 TOTAL ITERATIONS, OF WHICH
   0 ARE SEVERE DISCONTINUITY ITERATIONS AND  1 ARE EQUILIBRIUM ITERATIONS.

 TIME INCREMENT COMPLETED  5.000E-03,  FRACTION OF STEP COMPLETED  0.145    
 STEP TIME COMPLETED       0.145    ,  TOTAL TIME COMPLETED        0.145    


  INCREMENT    30 STARTS. ATTEMPT NUMBER  1, TIME INCREMENT  5.000E-03

  NUMBER OF EQUATIONS =        12     NUMBER OF RHS =    1
  NUMBER OF FLOATING PT. OPERATIONS =  3.78E+02

     CHECK POINT   START OF SOLVER    

     CHECK POINT  END OF SOLVER       

       ELAPSED USER TIME (SEC)      =   0.0000    
       ELAPSED SYSTEM TIME (SEC)    =   0.0000    
       ELAPSED TOTAL CPU TIME (SEC) =   0.0000    
       ELAPSED WALLCLOCK TIME (SEC) =          0

               CONVERGENCE CHECKS FOR EQUILIBRIUM ITERATION     1


 AVERAGE FORCE                      4.185E+03   TIME AVG. FORCE       2.495E+03
 LARGEST RESIDUAL FORCE            -1.951E-03   AT NODE          4   DOF  1
 LARGEST INCREMENT OF DISP.         1.500E-04   AT NODE          5   DOF  2
 LARGEST CORRECTION TO DISP.       -5.624E-07   AT NODE          6   DOF  1
          THE FORCE     EQUILIBRIUM EQUATIONS HAVE CONVERGED

 ITERATION SUMMARY FOR THE INCREMENT:   1 TOTAL ITERATIONS, OF WHICH
   0 ARE SEVERE DISCONTINUITY ITERATIONS AND  1 ARE EQUILIBRIUM ITERATIONS.

 TIME INCREMENT COMPLETED  5.000E-03,  FRACTION OF STEP COMPLETED  0.150    
 STEP TIME COMPLETED       0.150    ,  TOTAL TIME COMPLETED        0.150    


  INCREMENT    31 STARTS. ATTEMPT NUMBER  1, TIME INCREMENT  5.000E-03

  NUMBER OF EQUATIONS =        12     NUMBER OF RHS =    1
  NUMBER OF FLOATING PT. OPERATIONS =  3.78E+02

     CHECK POINT   START OF SOLVER    

     CHECK POINT  END OF SOLVER       

       ELAPSED USER TIME (SEC)      =   0.0000    
       ELAPSED SYSTEM TIME (SEC)    =   0.0000    
       ELAPSED TOTAL CPU TIME (SEC) =   0.0000    
       ELAPSED WALLCLOCK TIME (SEC) =          0

               CONVERGENCE CHECKS FOR EQUILIBRIUM ITERATION     1


 AVERAGE FORCE                      4.207E+03   TIME AVG. FORCE       2.550E+03
 LARGEST RESIDUAL FORCE            -1.195E-04   AT NODE          6   DOF  1
 LARGEST INCREMENT OF DISP.         1.500E-04   AT NODE          5   DOF  2
 LARGEST CORRECTION TO DISP.       -1.530E-06   AT NODE          4   DOF  1
 ESTIMATE OF DISP.    CORRECTION   -1.103E-10
 FORCE     EQUILIB. ACCEPTED BASED ON SMALL RESIDUAL AND ESTIMATED CORRECTION

 ITERATION SUMMARY FOR THE INCREMENT:   1 TOTAL ITERATIONS, OF WHICH
   0 ARE SEVERE DISCONTINUITY ITERATIONS AND  1 ARE EQUILIBRIUM ITERATIONS.

 TIME INCREMENT COMPLETED  5.000E-03,  FRACTION OF STEP COMPLETED  0.155    
 STEP TIME COMPLETED       0.155    ,  TOTAL TIME COMPLETED        0.155    


  INCREMENT    32 STARTS. ATTEMPT NUMBER  1, TIME INCREMENT  5.000E-03

  NUMBER OF EQUATIONS =        12     NUMBER OF RHS =    1
  NUMBER OF FLOATING PT. OPERATIONS =  3.78E+02

     CHECK POINT   START OF SOLVER    

     CHECK POINT  END OF SOLVER       

       ELAPSED USER TIME (SEC)      =   0.0000    
       ELAPSED SYSTEM TIME (SEC)    =   0.0000    
       ELAPSED TOTAL CPU TIME (SEC) =   0.0000    
       ELAPSED WALLCLOCK TIME (SEC) =          0

               CONVERGENCE CHECKS FOR EQUILIBRIUM ITERATION     1


 AVERAGE FORCE                      4.227E+03   TIME AVG. FORCE       2.603E+03
 LARGEST RESIDUAL FORCE            -4.001E-05   AT NODE          4   DOF  1
 LARGEST INCREMENT OF DISP.         1.500E-04   AT NODE          5   DOF  2
 LARGEST CORRECTION TO DISP.       -8.928E-07   AT NODE          2   DOF  1
          THE FORCE     EQUILIBRIUM EQUATIONS HAVE CONVERGED

 ITERATION SUMMARY FOR THE INCREMENT:   1 TOTAL ITERATIONS, OF WHICH
   0 ARE SEVERE DISCONTINUITY ITERATIONS AND  1 ARE EQUILIBRIUM ITERATIONS.

 TIME INCREMENT COMPLETED  5.000E-03,  FRACTION OF STEP COMPLETED  0.160    
 STEP TIME COMPLETED       0.160    ,  TOTAL TIME COMPLETED        0.160    


  INCREMENT    33 STARTS. ATTEMPT NUMBER  1, TIME INCREMENT  5.000E-03

  NUMBER OF EQUATIONS =        12     NUMBER OF RHS =    1
  NUMBER OF FLOATING PT. OPERATIONS =  3.78E+02

     CHECK POINT   START OF SOLVER    

     CHECK POINT  END OF SOLVER       

       ELAPSED USER TIME (SEC)      =   0.0000    
       ELAPSED SYSTEM TIME (SEC)    =   0.0000    
       ELAPSED TOTAL CPU TIME (SEC) =   0.0000    
       ELAPSED WALLCLOCK TIME (SEC) =          0

               CONVERGENCE CHECKS FOR EQUILIBRIUM ITERATION     1


 AVERAGE FORCE                      4.248E+03   TIME AVG. FORCE       2.653E+03
 LARGEST RESIDUAL FORCE            -1.275E-05   AT NODE          4   DOF  1
 LARGEST INCREMENT OF DISP.         1.500E-04   AT NODE          5   DOF  2
 LARGEST CORRECTION TO DISP.       -5.080E-07   AT NODE          6   DOF  1
          THE FORCE     EQUILIBRIUM RESPONSE WAS LINEAR IN THIS INCREMENT

 ITERATION SUMMARY FOR THE INCREMENT:   1 TOTAL ITERATIONS, OF WHICH
   0 ARE SEVERE DISCONTINUITY ITERATIONS AND  1 ARE EQUILIBRIUM ITERATIONS.

 TIME INCREMENT COMPLETED  5.000E-03,  FRACTION OF STEP COMPLETED  0.165    
 STEP TIME COMPLETED       0.165    ,  TOTAL TIME COMPLETED        0.165    


  INCREMENT    34 STARTS. ATTEMPT NUMBER  1, TIME INCREMENT  5.000E-03

  NUMBER OF EQUATIONS =        12     NUMBER OF RHS =    1
  NUMBER OF FLOATING PT. OPERATIONS =  3.78E+02

     CHECK POINT   START OF SOLVER    

     CHECK POINT  END OF SOLVER       

       ELAPSED USER TIME (SEC)      =   0.0000    
       ELAPSED SYSTEM TIME (SEC)    =   0.0000    
       ELAPSED TOTAL CPU TIME (SEC) =   0.0000    
       ELAPSED WALLCLOCK TIME (SEC) =          0

               CONVERGENCE CHECKS FOR EQUILIBRIUM ITERATION     1


 AVERAGE FORCE                      4.268E+03   TIME AVG. FORCE       2.700E+03
 LARGEST RESIDUAL FORCE            -1.422E-03   AT NODE          6   DOF  1
 LARGEST INCREMENT OF DISP.         1.500E-04   AT NODE          5   DOF  2
 LARGEST CORRECTION TO DISP.       -4.801E-07   AT NODE          6   DOF  1
          THE FORCE     EQUILIBRIUM EQUATIONS HAVE CONVERGED

 ITERATION SUMMARY FOR THE INCREMENT:   1 TOTAL ITERATIONS, OF WHICH
   0 ARE SEVERE DISCONTINUITY ITERATIONS AND  1 ARE EQUILIBRIUM ITERATIONS.

 TIME INCREMENT COMPLETED  5.000E-03,  FRACTION OF STEP COMPLETED  0.170    
 STEP TIME COMPLETED       0.170    ,  TOTAL TIME COMPLETED        0.170    


  INCREMENT    35 STARTS. ATTEMPT NUMBER  1, TIME INCREMENT  5.000E-03

  NUMBER OF EQUATIONS =        12     NUMBER OF RHS =    1
  NUMBER OF FLOATING PT. OPERATIONS =  3.78E+02

     CHECK POINT   START OF SOLVER    

     CHECK POINT  END OF SOLVER       

       ELAPSED USER TIME (SEC)      =   0.0000    
       ELAPSED SYSTEM TIME (SEC)    =   0.0000    
       ELAPSED TOTAL CPU TIME (SEC) =   0.0000    
       ELAPSED WALLCLOCK TIME (SEC) =          0

               CONVERGENCE CHECKS FOR EQUILIBRIUM ITERATION     1


 AVERAGE FORCE                      4.287E+03   TIME AVG. FORCE       2.745E+03
 LARGEST RESIDUAL FORCE            -1.010E-05   AT NODE          4   DOF  1
 LARGEST INCREMENT OF DISP.         1.500E-04   AT NODE          5   DOF  2
 LARGEST CORRECTION TO DISP.       -4.587E-07   AT NODE          2   DOF  1
          THE FORCE     EQUILIBRIUM RESPONSE WAS LINEAR IN THIS INCREMENT

 ITERATION SUMMARY FOR THE INCREMENT:   1 TOTAL ITERATIONS, OF WHICH
   0 ARE SEVERE DISCONTINUITY ITERATIONS AND  1 ARE EQUILIBRIUM ITERATIONS.

 TIME INCREMENT COMPLETED  5.000E-03,  FRACTION OF STEP COMPLETED  0.175    
 STEP TIME COMPLETED       0.175    ,  TOTAL TIME COMPLETED        0.175    


  INCREMENT    36 STARTS. ATTEMPT NUMBER  1, TIME INCREMENT  5.000E-03

  NUMBER OF EQUATIONS =        12     NUMBER OF RHS =    1
  NUMBER OF FLOATING PT. OPERATIONS =  3.78E+02

     CHECK POINT   START OF SOLVER    

     CHECK POINT  END OF SOLVER       

       ELAPSED USER TIME (SEC)      =   0.0000    
       ELAPSED SYSTEM TIME (SEC)    =   0.0000    
       ELAPSED TOTAL CPU TIME (SEC) =   0.0000    
       ELAPSED WALLCLOCK TIME (SEC) =          0

               CONVERGENCE CHECKS FOR EQUILIBRIUM ITERATION     1


 AVERAGE FORCE                      4.307E+03   TIME AVG. FORCE       2.789E+03
 LARGEST RESIDUAL FORCE            -1.150E-03   AT NODE          6   DOF  1
 LARGEST INCREMENT OF DISP.         1.500E-04   AT NODE          5   DOF  2
 LARGEST CORRECTION TO DISP.       -4.298E-07   AT NODE          6   DOF  1
          THE FORCE     EQUILIBRIUM EQUATIONS HAVE CONVERGED

 ITERATION SUMMARY FOR THE INCREMENT:   1 TOTAL ITERATIONS, OF WHICH
   0 ARE SEVERE DISCONTINUITY ITERATIONS AND  1 ARE EQUILIBRIUM ITERATIONS.

 TIME INCREMENT COMPLETED  5.000E-03,  FRACTION OF STEP COMPLETED  0.180    
 STEP TIME COMPLETED       0.180    ,  TOTAL TIME COMPLETED        0.180    


  INCREMENT    37 STARTS. ATTEMPT NUMBER  1, TIME INCREMENT  5.000E-03

  NUMBER OF EQUATIONS =        12     NUMBER OF RHS =    1
  NUMBER OF FLOATING PT. OPERATIONS =  3.78E+02

     CHECK POINT   START OF SOLVER    

     CHECK POINT  END OF SOLVER       

       ELAPSED USER TIME (SEC)      =   0.0000    
       ELAPSED SYSTEM TIME (SEC)    =   0.0000    
       ELAPSED TOTAL CPU TIME (SEC) =   0.0000    
       ELAPSED WALLCLOCK TIME (SEC) =          0

               CONVERGENCE CHECKS FOR EQUILIBRIUM ITERATION     1


 AVERAGE FORCE                      4.326E+03   TIME AVG. FORCE       2.830E+03
 LARGEST RESIDUAL FORCE            -1.011E-05   AT NODE          6   DOF  1
 LARGEST INCREMENT OF DISP.         1.500E-04   AT NODE          5   DOF  2
 LARGEST CORRECTION TO DISP.       -4.628E-07   AT NODE          6   DOF  1
          THE FORCE     EQUILIBRIUM RESPONSE WAS LINEAR IN THIS INCREMENT

 ITERATION SUMMARY FOR THE INCREMENT:   1 TOTAL ITERATIONS, OF WHICH
   0 ARE SEVERE DISCONTINUITY ITERATIONS AND  1 ARE EQUILIBRIUM ITERATIONS.

 TIME INCREMENT COMPLETED  5.000E-03,  FRACTION OF STEP COMPLETED  0.185    
 STEP TIME COMPLETED       0.185    ,  TOTAL TIME COMPLETED        0.185    


  INCREMENT    38 STARTS. ATTEMPT NUMBER  1, TIME INCREMENT  5.000E-03

  NUMBER OF EQUATIONS =        12     NUMBER OF RHS =    1
  NUMBER OF FLOATING PT. OPERATIONS =  3.78E+02

     CHECK POINT   START OF SOLVER    

     CHECK POINT  END OF SOLVER       

       ELAPSED USER TIME (SEC)      =   0.0000    
       ELAPSED SYSTEM TIME (SEC)    =   0.0000    
       ELAPSED TOTAL CPU TIME (SEC) =   0.0000    
       ELAPSED WALLCLOCK TIME (SEC) =          0

               CONVERGENCE CHECKS FOR EQUILIBRIUM ITERATION     1


 AVERAGE FORCE                      4.343E+03   TIME AVG. FORCE       2.870E+03
 LARGEST RESIDUAL FORCE            -3.537E-03   AT NODE          4   DOF  1
 LARGEST INCREMENT OF DISP.         1.500E-04   AT NODE          5   DOF  2
 LARGEST CORRECTION TO DISP.       -1.348E-06   AT NODE          6   DOF  1
          THE FORCE     EQUILIBRIUM EQUATIONS HAVE CONVERGED

 ITERATION SUMMARY FOR THE INCREMENT:   1 TOTAL ITERATIONS, OF WHICH
   0 ARE SEVERE DISCONTINUITY ITERATIONS AND  1 ARE EQUILIBRIUM ITERATIONS.

 TIME INCREMENT COMPLETED  5.000E-03,  FRACTION OF STEP COMPLETED  0.190    
 STEP TIME COMPLETED       0.190    ,  TOTAL TIME COMPLETED        0.190    


  INCREMENT    39 STARTS. ATTEMPT NUMBER  1, TIME INCREMENT  5.000E-03

  NUMBER OF EQUATIONS =        12     NUMBER OF RHS =    1
  NUMBER OF FLOATING PT. OPERATIONS =  3.78E+02

     CHECK POINT   START OF SOLVER    

     CHECK POINT  END OF SOLVER       

       ELAPSED USER TIME (SEC)      =   0.0000    
       ELAPSED SYSTEM TIME (SEC)    =   0.0000    
       ELAPSED TOTAL CPU TIME (SEC) =   0.0000    
       ELAPSED WALLCLOCK TIME (SEC) =          0

               CONVERGENCE CHECKS FOR EQUILIBRIUM ITERATION     1


 AVERAGE FORCE                      4.359E+03   TIME AVG. FORCE       2.908E+03
 LARGEST RESIDUAL FORCE            -7.013E-06   AT NODE          6   DOF  1
 LARGEST INCREMENT OF DISP.         1.500E-04   AT NODE          5   DOF  2
 LARGEST CORRECTION TO DISP.       -3.907E-07   AT NODE          4   DOF  1
          THE FORCE     EQUILIBRIUM RESPONSE WAS LINEAR IN THIS INCREMENT

 ITERATION SUMMARY FOR THE INCREMENT:   1 TOTAL ITERATIONS, OF WHICH
   0 ARE SEVERE DISCONTINUITY ITERATIONS AND  1 ARE EQUILIBRIUM ITERATIONS.

 TIME INCREMENT COMPLETED  5.000E-03,  FRACTION OF STEP COMPLETED  0.195    
 STEP TIME COMPLETED       0.195    ,  TOTAL TIME COMPLETED        0.195    


  INCREMENT    40 STARTS. ATTEMPT NUMBER  1, TIME INCREMENT  5.000E-03

  NUMBER OF EQUATIONS =        12     NUMBER OF RHS =    1
  NUMBER OF FLOATING PT. OPERATIONS =  3.78E+02

     CHECK POINT   START OF SOLVER    

     CHECK POINT  END OF SOLVER       

       ELAPSED USER TIME (SEC)      =   0.0000    
       ELAPSED SYSTEM TIME (SEC)    =   0.0000    
       ELAPSED TOTAL CPU TIME (SEC) =   0.0000    
       ELAPSED WALLCLOCK TIME (SEC) =          0

               CONVERGENCE CHECKS FOR EQUILIBRIUM ITERATION     1


 AVERAGE FORCE                      4.376E+03   TIME AVG. FORCE       2.945E+03
 LARGEST RESIDUAL FORCE            -8.173E-04   AT NODE          4   DOF  1
 LARGEST INCREMENT OF DISP.         1.500E-04   AT NODE          5   DOF  2
 LARGEST CORRECTION TO DISP.       -3.602E-07   AT NODE          2   DOF  1
          THE FORCE     EQUILIBRIUM EQUATIONS HAVE CONVERGED

 ITERATION SUMMARY FOR THE INCREMENT:   1 TOTAL ITERATIONS, OF WHICH
   0 ARE SEVERE DISCONTINUITY ITERATIONS AND  1 ARE EQUILIBRIUM ITERATIONS.

 TIME INCREMENT COMPLETED  5.000E-03,  FRACTION OF STEP COMPLETED  0.200    
 STEP TIME COMPLETED       0.200    ,  TOTAL TIME COMPLETED        0.200    


  INCREMENT    41 STARTS. ATTEMPT NUMBER  1, TIME INCREMENT  5.000E-03

  NUMBER OF EQUATIONS =        12     NUMBER OF RHS =    1
  NUMBER OF FLOATING PT. OPERATIONS =  3.78E+02

     CHECK POINT   START OF SOLVER    

     CHECK POINT  END OF SOLVER       

       ELAPSED USER TIME (SEC)      =   0.0000    
       ELAPSED SYSTEM TIME (SEC)    =   0.0000    
       ELAPSED TOTAL CPU TIME (SEC) =   0.0000    
       ELAPSED WALLCLOCK TIME (SEC) =          0

               CONVERGENCE CHECKS FOR EQUILIBRIUM ITERATION     1


 AVERAGE FORCE                      4.392E+03   TIME AVG. FORCE       2.980E+03
 LARGEST RESIDUAL FORCE            -5.390E-06   AT NODE          4   DOF  1
 LARGEST INCREMENT OF DISP.         1.500E-04   AT NODE          5   DOF  2
 LARGEST CORRECTION TO DISP.       -3.467E-07   AT NODE          6   DOF  1
          THE FORCE     EQUILIBRIUM RESPONSE WAS LINEAR IN THIS INCREMENT

 ITERATION SUMMARY FOR THE INCREMENT:   1 TOTAL ITERATIONS, OF WHICH
   0 ARE SEVERE DISCONTINUITY ITERATIONS AND  1 ARE EQUILIBRIUM ITERATIONS.

 TIME INCREMENT COMPLETED  5.000E-03,  FRACTION OF STEP COMPLETED  0.205    
 STEP TIME COMPLETED       0.205    ,  TOTAL TIME COMPLETED        0.205    


  INCREMENT    42 STARTS. ATTEMPT NUMBER  1, TIME INCREMENT  5.000E-03

  NUMBER OF EQUATIONS =        12     NUMBER OF RHS =    1
  NUMBER OF FLOATING PT. OPERATIONS =  3.78E+02

     CHECK POINT   START OF SOLVER    

     CHECK POINT  END OF SOLVER       

       ELAPSED USER TIME (SEC)      =   0.0000    
       ELAPSED SYSTEM TIME (SEC)    =   0.0000    
       ELAPSED TOTAL CPU TIME (SEC) =   0.0000    
       ELAPSED WALLCLOCK TIME (SEC) =          0

               CONVERGENCE CHECKS FOR EQUILIBRIUM ITERATION     1


 AVERAGE FORCE                      4.409E+03   TIME AVG. FORCE       3.014E+03
 LARGEST RESIDUAL FORCE            -6.686E-04   AT NODE          4   DOF  1
 LARGEST INCREMENT OF DISP.         1.500E-04   AT NODE          5   DOF  2
 LARGEST CORRECTION TO DISP.       -3.259E-07   AT NODE          4   DOF  1
          THE FORCE     EQUILIBRIUM EQUATIONS HAVE CONVERGED

 ITERATION SUMMARY FOR THE INCREMENT:   1 TOTAL ITERATIONS, OF WHICH
   0 ARE SEVERE DISCONTINUITY ITERATIONS AND  1 ARE EQUILIBRIUM ITERATIONS.

 TIME INCREMENT COMPLETED  5.000E-03,  FRACTION OF STEP COMPLETED  0.210    
 STEP TIME COMPLETED       0.210    ,  TOTAL TIME COMPLETED        0.210    


  INCREMENT    43 STARTS. ATTEMPT NUMBER  1, TIME INCREMENT  5.000E-03

  NUMBER OF EQUATIONS =        12     NUMBER OF RHS =    1
  NUMBER OF FLOATING PT. OPERATIONS =  3.78E+02

     CHECK POINT   START OF SOLVER    

     CHECK POINT  END OF SOLVER       

       ELAPSED USER TIME (SEC)      =   0.0000    
       ELAPSED SYSTEM TIME (SEC)    =   0.0000    
       ELAPSED TOTAL CPU TIME (SEC) =   0.0000    
       ELAPSED WALLCLOCK TIME (SEC) =          0

               CONVERGENCE CHECKS FOR EQUILIBRIUM ITERATION     1


 AVERAGE FORCE                      4.425E+03   TIME AVG. FORCE       3.047E+03
 LARGEST RESIDUAL FORCE            -4.251E-06   AT NODE          4   DOF  1
 LARGEST INCREMENT OF DISP.         1.500E-04   AT NODE          5   DOF  2
 LARGEST CORRECTION TO DISP.       -3.115E-07   AT NODE          4   DOF  1
          THE FORCE     EQUILIBRIUM RESPONSE WAS LINEAR IN THIS INCREMENT

 ITERATION SUMMARY FOR THE INCREMENT:   1 TOTAL ITERATIONS, OF WHICH
   0 ARE SEVERE DISCONTINUITY ITERATIONS AND  1 ARE EQUILIBRIUM ITERATIONS.

 TIME INCREMENT COMPLETED  5.000E-03,  FRACTION OF STEP COMPLETED  0.215    
 STEP TIME COMPLETED       0.215    ,  TOTAL TIME COMPLETED        0.215    


  INCREMENT    44 STARTS. ATTEMPT NUMBER  1, TIME INCREMENT  5.000E-03

  NUMBER OF EQUATIONS =        12     NUMBER OF RHS =    1
  NUMBER OF FLOATING PT. OPERATIONS =  3.78E+02

     CHECK POINT   START OF SOLVER    

     CHECK POINT  END OF SOLVER       

       ELAPSED USER TIME (SEC)      =   0.0000    
       ELAPSED SYSTEM TIME (SEC)    =   0.0000    
       ELAPSED TOTAL CPU TIME (SEC) =   0.0000    
       ELAPSED WALLCLOCK TIME (SEC) =          0

               CONVERGENCE CHECKS FOR EQUILIBRIUM ITERATION     1


 AVERAGE FORCE                      4.440E+03   TIME AVG. FORCE       3.079E+03
 LARGEST RESIDUAL FORCE            -3.434E-03   AT NODE          4   DOF  1
 LARGEST INCREMENT OF DISP.         1.500E-04   AT NODE          5   DOF  2
 LARGEST CORRECTION TO DISP.       -7.186E-07   AT NODE          4   DOF  1
          THE FORCE     EQUILIBRIUM EQUATIONS HAVE CONVERGED

 ITERATION SUMMARY FOR THE INCREMENT:   1 TOTAL ITERATIONS, OF WHICH
   0 ARE SEVERE DISCONTINUITY ITERATIONS AND  1 ARE EQUILIBRIUM ITERATIONS.

 TIME INCREMENT COMPLETED  5.000E-03,  FRACTION OF STEP COMPLETED  0.220    
 STEP TIME COMPLETED       0.220    ,  TOTAL TIME COMPLETED        0.220    


  INCREMENT    45 STARTS. ATTEMPT NUMBER  1, TIME INCREMENT  5.000E-03

  NUMBER OF EQUATIONS =        12     NUMBER OF RHS =    1
  NUMBER OF FLOATING PT. OPERATIONS =  3.78E+02

     CHECK POINT   START OF SOLVER    

     CHECK POINT  END OF SOLVER       

       ELAPSED USER TIME (SEC)      =   0.0000    
       ELAPSED SYSTEM TIME (SEC)    =   0.0000    
       ELAPSED TOTAL CPU TIME (SEC) =   0.0000    
       ELAPSED WALLCLOCK TIME (SEC) =          0

               CONVERGENCE CHECKS FOR EQUILIBRIUM ITERATION     1


 AVERAGE FORCE                      4.454E+03   TIME AVG. FORCE       3.109E+03
 LARGEST RESIDUAL FORCE            -1.826E-05   AT NODE          6   DOF  1
 LARGEST INCREMENT OF DISP.         1.500E-04   AT NODE          5   DOF  2
 LARGEST CORRECTION TO DISP.       -6.536E-07   AT NODE          4   DOF  1
          THE FORCE     EQUILIBRIUM RESPONSE WAS LINEAR IN THIS INCREMENT

 ITERATION SUMMARY FOR THE INCREMENT:   1 TOTAL ITERATIONS, OF WHICH
   0 ARE SEVERE DISCONTINUITY ITERATIONS AND  1 ARE EQUILIBRIUM ITERATIONS.

 TIME INCREMENT COMPLETED  5.000E-03,  FRACTION OF STEP COMPLETED  0.225    
 STEP TIME COMPLETED       0.225    ,  TOTAL TIME COMPLETED        0.225    


  INCREMENT    46 STARTS. ATTEMPT NUMBER  1, TIME INCREMENT  5.000E-03

  NUMBER OF EQUATIONS =        12     NUMBER OF RHS =    1
  NUMBER OF FLOATING PT. OPERATIONS =  3.78E+02

     CHECK POINT   START OF SOLVER    

     CHECK POINT  END OF SOLVER       

       ELAPSED USER TIME (SEC)      =   0.0000    
       ELAPSED SYSTEM TIME (SEC)    =   0.0000    
       ELAPSED TOTAL CPU TIME (SEC) =   0.0000    
       ELAPSED WALLCLOCK TIME (SEC) =          0

               CONVERGENCE CHECKS FOR EQUILIBRIUM ITERATION     1


 AVERAGE FORCE                      4.468E+03   TIME AVG. FORCE       3.139E+03
 LARGEST RESIDUAL FORCE            -4.794E-04   AT NODE          4   DOF  1
 LARGEST INCREMENT OF DISP.         1.500E-04   AT NODE          5   DOF  2
 LARGEST CORRECTION TO DISP.       -2.714E-07   AT NODE          6   DOF  1
          THE FORCE     EQUILIBRIUM EQUATIONS HAVE CONVERGED

 ITERATION SUMMARY FOR THE INCREMENT:   1 TOTAL ITERATIONS, OF WHICH
   0 ARE SEVERE DISCONTINUITY ITERATIONS AND  1 ARE EQUILIBRIUM ITERATIONS.

 TIME INCREMENT COMPLETED  5.000E-03,  FRACTION OF STEP COMPLETED  0.230    
 STEP TIME COMPLETED       0.230    ,  TOTAL TIME COMPLETED        0.230    


  INCREMENT    47 STARTS. ATTEMPT NUMBER  1, TIME INCREMENT  5.000E-03

  NUMBER OF EQUATIONS =        12     NUMBER OF RHS =    1
  NUMBER OF FLOATING PT. OPERATIONS =  3.78E+02

     CHECK POINT   START OF SOLVER    

     CHECK POINT  END OF SOLVER       

       ELAPSED USER TIME (SEC)      =   0.0000    
       ELAPSED SYSTEM TIME (SEC)    =   0.0000    
       ELAPSED TOTAL CPU TIME (SEC) =   0.0000    
       ELAPSED WALLCLOCK TIME (SEC) =          0

               CONVERGENCE CHECKS FOR EQUILIBRIUM ITERATION     1


 AVERAGE FORCE                      4.482E+03   TIME AVG. FORCE       3.167E+03
 LARGEST RESIDUAL FORCE            -2.899E-06   AT NODE          4   DOF  1
 LARGEST INCREMENT OF DISP.         1.500E-04   AT NODE          5   DOF  2
 LARGEST CORRECTION TO DISP.       -2.619E-07   AT NODE          4   DOF  1
          THE FORCE     EQUILIBRIUM RESPONSE WAS LINEAR IN THIS INCREMENT

 ITERATION SUMMARY FOR THE INCREMENT:   1 TOTAL ITERATIONS, OF WHICH
   0 ARE SEVERE DISCONTINUITY ITERATIONS AND  1 ARE EQUILIBRIUM ITERATIONS.

 TIME INCREMENT COMPLETED  5.000E-03,  FRACTION OF STEP COMPLETED  0.235    
 STEP TIME COMPLETED       0.235    ,  TOTAL TIME COMPLETED        0.235    


  INCREMENT    48 STARTS. ATTEMPT NUMBER  1, TIME INCREMENT  5.000E-03

  NUMBER OF EQUATIONS =        12     NUMBER OF RHS =    1
  NUMBER OF FLOATING PT. OPERATIONS =  3.78E+02

     CHECK POINT   START OF SOLVER    

     CHECK POINT  END OF SOLVER       

       ELAPSED USER TIME (SEC)      =   0.0000    
       ELAPSED SYSTEM TIME (SEC)    =   0.0000    
       ELAPSED TOTAL CPU TIME (SEC) =   0.0000    
       ELAPSED WALLCLOCK TIME (SEC) =          0

               CONVERGENCE CHECKS FOR EQUILIBRIUM ITERATION     1


 AVERAGE FORCE                      4.496E+03   TIME AVG. FORCE       3.195E+03
 LARGEST RESIDUAL FORCE            -3.878E-04   AT NODE          6   DOF  1
 LARGEST INCREMENT OF DISP.         1.500E-04   AT NODE          5   DOF  2
 LARGEST CORRECTION TO DISP.       -2.468E-07   AT NODE          4   DOF  1
          THE FORCE     EQUILIBRIUM EQUATIONS HAVE CONVERGED

 ITERATION SUMMARY FOR THE INCREMENT:   1 TOTAL ITERATIONS, OF WHICH
   0 ARE SEVERE DISCONTINUITY ITERATIONS AND  1 ARE EQUILIBRIUM ITERATIONS.

 TIME INCREMENT COMPLETED  5.000E-03,  FRACTION OF STEP COMPLETED  0.240    
 STEP TIME COMPLETED       0.240    ,  TOTAL TIME COMPLETED        0.240    


  INCREMENT    49 STARTS. ATTEMPT NUMBER  1, TIME INCREMENT  5.000E-03

  NUMBER OF EQUATIONS =        12     NUMBER OF RHS =    1
  NUMBER OF FLOATING PT. OPERATIONS =  3.78E+02

     CHECK POINT   START OF SOLVER    

     CHECK POINT  END OF SOLVER       

       ELAPSED USER TIME (SEC)      =   0.0000    
       ELAPSED SYSTEM TIME (SEC)    =   0.0000    
       ELAPSED TOTAL CPU TIME (SEC) =   0.0000    
       ELAPSED WALLCLOCK TIME (SEC) =          0

               CONVERGENCE CHECKS FOR EQUILIBRIUM ITERATION     1


 AVERAGE FORCE                      4.510E+03   TIME AVG. FORCE       3.222E+03
 LARGEST RESIDUAL FORCE            -2.305E-06   AT NODE          6   DOF  1
 LARGEST INCREMENT OF DISP.         1.500E-04   AT NODE          5   DOF  2
 LARGEST CORRECTION TO DISP.       -2.357E-07   AT NODE          6   DOF  1
          THE FORCE     EQUILIBRIUM RESPONSE WAS LINEAR IN THIS INCREMENT

 ITERATION SUMMARY FOR THE INCREMENT:   1 TOTAL ITERATIONS, OF WHICH
   0 ARE SEVERE DISCONTINUITY ITERATIONS AND  1 ARE EQUILIBRIUM ITERATIONS.

 TIME INCREMENT COMPLETED  5.000E-03,  FRACTION OF STEP COMPLETED  0.245    
 STEP TIME COMPLETED       0.245    ,  TOTAL TIME COMPLETED        0.245    


  INCREMENT    50 STARTS. ATTEMPT NUMBER  1, TIME INCREMENT  5.000E-03

  NUMBER OF EQUATIONS =        12     NUMBER OF RHS =    1
  NUMBER OF FLOATING PT. OPERATIONS =  3.78E+02

     CHECK POINT   START OF SOLVER    

     CHECK POINT  END OF SOLVER       

       ELAPSED USER TIME (SEC)      =   0.0000    
       ELAPSED SYSTEM TIME (SEC)    =   0.0000    
       ELAPSED TOTAL CPU TIME (SEC) =   0.0000    
       ELAPSED WALLCLOCK TIME (SEC) =          0

               CONVERGENCE CHECKS FOR EQUILIBRIUM ITERATION     1


 AVERAGE FORCE                      4.523E+03   TIME AVG. FORCE       3.248E+03
 LARGEST RESIDUAL FORCE            -1.157E-03   AT NODE          4   DOF  1
 LARGEST INCREMENT OF DISP.         1.500E-04   AT NODE          5   DOF  2
 LARGEST CORRECTION TO DISP.       -3.191E-07   AT NODE          6   DOF  1
          THE FORCE     EQUILIBRIUM EQUATIONS HAVE CONVERGED

 ITERATION SUMMARY FOR THE INCREMENT:   1 TOTAL ITERATIONS, OF WHICH
   0 ARE SEVERE DISCONTINUITY ITERATIONS AND  1 ARE EQUILIBRIUM ITERATIONS.

 TIME INCREMENT COMPLETED  5.000E-03,  FRACTION OF STEP COMPLETED  0.250    
 STEP TIME COMPLETED       0.250    ,  TOTAL TIME COMPLETED        0.250    


  INCREMENT    51 STARTS. ATTEMPT NUMBER  1, TIME INCREMENT  5.000E-03

  NUMBER OF EQUATIONS =        12     NUMBER OF RHS =    1
  NUMBER OF FLOATING PT. OPERATIONS =  3.78E+02

     CHECK POINT   START OF SOLVER    

     CHECK POINT  END OF SOLVER       

       ELAPSED USER TIME (SEC)      =   0.0000    
       ELAPSED SYSTEM TIME (SEC)    =   0.0000    
       ELAPSED TOTAL CPU TIME (SEC) =   0.0000    
       ELAPSED WALLCLOCK TIME (SEC) =          0

               CONVERGENCE CHECKS FOR EQUILIBRIUM ITERATION     1


 AVERAGE FORCE                      4.535E+03   TIME AVG. FORCE       3.273E+03
 LARGEST RESIDUAL FORCE            -2.226E-05   AT NODE          4   DOF  1
 LARGEST INCREMENT OF DISP.         1.500E-04   AT NODE          5   DOF  2
 LARGEST CORRECTION TO DISP.       -7.439E-07   AT NODE          4   DOF  1
          THE FORCE     EQUILIBRIUM RESPONSE WAS LINEAR IN THIS INCREMENT

 ITERATION SUMMARY FOR THE INCREMENT:   1 TOTAL ITERATIONS, OF WHICH
   0 ARE SEVERE DISCONTINUITY ITERATIONS AND  1 ARE EQUILIBRIUM ITERATIONS.

 TIME INCREMENT COMPLETED  5.000E-03,  FRACTION OF STEP COMPLETED  0.255    
 STEP TIME COMPLETED       0.255    ,  TOTAL TIME COMPLETED        0.255    


  INCREMENT    52 STARTS. ATTEMPT NUMBER  1, TIME INCREMENT  5.000E-03

  NUMBER OF EQUATIONS =        12     NUMBER OF RHS =    1
  NUMBER OF FLOATING PT. OPERATIONS =  3.78E+02

     CHECK POINT   START OF SOLVER    

     CHECK POINT  END OF SOLVER       

       ELAPSED USER TIME (SEC)      =   0.0000    
       ELAPSED SYSTEM TIME (SEC)    =   0.0000    
       ELAPSED TOTAL CPU TIME (SEC) =   0.0000    
       ELAPSED WALLCLOCK TIME (SEC) =          0

               CONVERGENCE CHECKS FOR EQUILIBRIUM ITERATION     1


 AVERAGE FORCE                      4.548E+03   TIME AVG. FORCE       3.298E+03
 LARGEST RESIDUAL FORCE            -2.837E-04   AT NODE          4   DOF  1
 LARGEST INCREMENT OF DISP.         1.500E-04   AT NODE          5   DOF  2
 LARGEST CORRECTION TO DISP.       -2.069E-07   AT NODE          4   DOF  1
          THE FORCE     EQUILIBRIUM EQUATIONS HAVE CONVERGED

 ITERATION SUMMARY FOR THE INCREMENT:   1 TOTAL ITERATIONS, OF WHICH
   0 ARE SEVERE DISCONTINUITY ITERATIONS AND  1 ARE EQUILIBRIUM ITERATIONS.

 TIME INCREMENT COMPLETED  5.000E-03,  FRACTION OF STEP COMPLETED  0.260    
 STEP TIME COMPLETED       0.260    ,  TOTAL TIME COMPLETED        0.260    


  INCREMENT    53 STARTS. ATTEMPT NUMBER  1, TIME INCREMENT  5.000E-03

  NUMBER OF EQUATIONS =        12     NUMBER OF RHS =    1
  NUMBER OF FLOATING PT. OPERATIONS =  3.78E+02

     CHECK POINT   START OF SOLVER    

     CHECK POINT  END OF SOLVER       

       ELAPSED USER TIME (SEC)      =   0.0000    
       ELAPSED SYSTEM TIME (SEC)    =   0.0000    
       ELAPSED TOTAL CPU TIME (SEC) =   0.0000    
       ELAPSED WALLCLOCK TIME (SEC) =          0

               CONVERGENCE CHECKS FOR EQUILIBRIUM ITERATION     1


 AVERAGE FORCE                      4.560E+03   TIME AVG. FORCE       3.321E+03
 LARGEST RESIDUAL FORCE            -1.582E-06   AT NODE          6   DOF  1
 LARGEST INCREMENT OF DISP.         1.500E-04   AT NODE          5   DOF  2
 LARGEST CORRECTION TO DISP.       -1.983E-07   AT NODE          4   DOF  1
          THE FORCE     EQUILIBRIUM RESPONSE WAS LINEAR IN THIS INCREMENT

 ITERATION SUMMARY FOR THE INCREMENT:   1 TOTAL ITERATIONS, OF WHICH
   0 ARE SEVERE DISCONTINUITY ITERATIONS AND  1 ARE EQUILIBRIUM ITERATIONS.

 TIME INCREMENT COMPLETED  5.000E-03,  FRACTION OF STEP COMPLETED  0.265    
 STEP TIME COMPLETED       0.265    ,  TOTAL TIME COMPLETED        0.265    


  INCREMENT    54 STARTS. ATTEMPT NUMBER  1, TIME INCREMENT  5.000E-03

  NUMBER OF EQUATIONS =        12     NUMBER OF RHS =    1
  NUMBER OF FLOATING PT. OPERATIONS =  3.78E+02

     CHECK POINT   START OF SOLVER    

     CHECK POINT  END OF SOLVER       

       ELAPSED USER TIME (SEC)      =   0.0000    
       ELAPSED SYSTEM TIME (SEC)    =   0.0000    
       ELAPSED TOTAL CPU TIME (SEC) =   0.0000    
       ELAPSED WALLCLOCK TIME (SEC) =          0

               CONVERGENCE CHECKS FOR EQUILIBRIUM ITERATION     1


 AVERAGE FORCE                      4.572E+03   TIME AVG. FORCE       3.345E+03
 LARGEST RESIDUAL FORCE            -2.257E-04   AT NODE          4   DOF  1
 LARGEST INCREMENT OF DISP.         1.500E-04   AT NODE          5   DOF  2
 LARGEST CORRECTION TO DISP.       -1.874E-07   AT NODE          6   DOF  1
          THE FORCE     EQUILIBRIUM EQUATIONS HAVE CONVERGED

 ITERATION SUMMARY FOR THE INCREMENT:   1 TOTAL ITERATIONS, OF WHICH
   0 ARE SEVERE DISCONTINUITY ITERATIONS AND  1 ARE EQUILIBRIUM ITERATIONS.

 TIME INCREMENT COMPLETED  5.000E-03,  FRACTION OF STEP COMPLETED  0.270    
 STEP TIME COMPLETED       0.270    ,  TOTAL TIME COMPLETED        0.270    


  INCREMENT    55 STARTS. ATTEMPT NUMBER  1, TIME INCREMENT  5.000E-03

  NUMBER OF EQUATIONS =        12     NUMBER OF RHS =    1
  NUMBER OF FLOATING PT. OPERATIONS =  3.78E+02

     CHECK POINT   START OF SOLVER    

     CHECK POINT  END OF SOLVER       

       ELAPSED USER TIME (SEC)      =   0.0000    
       ELAPSED SYSTEM TIME (SEC)    =   0.0000    
       ELAPSED TOTAL CPU TIME (SEC) =   0.0000    
       ELAPSED WALLCLOCK TIME (SEC) =          0

               CONVERGENCE CHECKS FOR EQUILIBRIUM ITERATION     1


 AVERAGE FORCE                      4.584E+03   TIME AVG. FORCE       3.367E+03
 LARGEST RESIDUAL FORCE            -1.267E-06   AT NODE          6   DOF  1
 LARGEST INCREMENT OF DISP.         1.500E-04   AT NODE          5   DOF  2
 LARGEST CORRECTION TO DISP.       -1.789E-07   AT NODE          4   DOF  1
          THE FORCE     EQUILIBRIUM RESPONSE WAS LINEAR IN THIS INCREMENT

 ITERATION SUMMARY FOR THE INCREMENT:   1 TOTAL ITERATIONS, OF WHICH
   0 ARE SEVERE DISCONTINUITY ITERATIONS AND  1 ARE EQUILIBRIUM ITERATIONS.

 TIME INCREMENT COMPLETED  5.000E-03,  FRACTION OF STEP COMPLETED  0.275    
 STEP TIME COMPLETED       0.275    ,  TOTAL TIME COMPLETED        0.275    


  INCREMENT    56 STARTS. ATTEMPT NUMBER  1, TIME INCREMENT  5.000E-03

  NUMBER OF EQUATIONS =        12     NUMBER OF RHS =    1
  NUMBER OF FLOATING PT. OPERATIONS =  3.78E+02

     CHECK POINT   START OF SOLVER    

     CHECK POINT  END OF SOLVER       

       ELAPSED USER TIME (SEC)      =   0.0000    
       ELAPSED SYSTEM TIME (SEC)    =   0.0000    
       ELAPSED TOTAL CPU TIME (SEC) =   0.0000    
       ELAPSED WALLCLOCK TIME (SEC) =          0

               CONVERGENCE CHECKS FOR EQUILIBRIUM ITERATION     1


 AVERAGE FORCE                      4.596E+03   TIME AVG. FORCE       3.389E+03
 LARGEST RESIDUAL FORCE            -1.847E-04   AT NODE          4   DOF  1
 LARGEST INCREMENT OF DISP.         1.500E-04   AT NODE          5   DOF  2
 LARGEST CORRECTION TO DISP.       -1.692E-07   AT NODE          6   DOF  1
          THE FORCE     EQUILIBRIUM EQUATIONS HAVE CONVERGED

 ITERATION SUMMARY FOR THE INCREMENT:   1 TOTAL ITERATIONS, OF WHICH
   0 ARE SEVERE DISCONTINUITY ITERATIONS AND  1 ARE EQUILIBRIUM ITERATIONS.

 TIME INCREMENT COMPLETED  5.000E-03,  FRACTION OF STEP COMPLETED  0.280    
 STEP TIME COMPLETED       0.280    ,  TOTAL TIME COMPLETED        0.280    


  INCREMENT    57 STARTS. ATTEMPT NUMBER  1, TIME INCREMENT  5.000E-03

  NUMBER OF EQUATIONS =        12     NUMBER OF RHS =    1
  NUMBER OF FLOATING PT. OPERATIONS =  3.78E+02

     CHECK POINT   START OF SOLVER    

     CHECK POINT  END OF SOLVER       

       ELAPSED USER TIME (SEC)      =   0.0000    
       ELAPSED SYSTEM TIME (SEC)    =   0.0000    
       ELAPSED TOTAL CPU TIME (SEC) =   0.0000    
       ELAPSED WALLCLOCK TIME (SEC) =          0

               CONVERGENCE CHECKS FOR EQUILIBRIUM ITERATION     1


 AVERAGE FORCE                      4.608E+03   TIME AVG. FORCE       3.411E+03
 LARGEST RESIDUAL FORCE            -1.407E-05   AT NODE          6   DOF  1
 LARGEST INCREMENT OF DISP.         1.500E-04   AT NODE          5   DOF  2
 LARGEST CORRECTION TO DISP.       -6.059E-07   AT NODE          4   DOF  1
          THE FORCE     EQUILIBRIUM RESPONSE WAS LINEAR IN THIS INCREMENT

 ITERATION SUMMARY FOR THE INCREMENT:   1 TOTAL ITERATIONS, OF WHICH
   0 ARE SEVERE DISCONTINUITY ITERATIONS AND  1 ARE EQUILIBRIUM ITERATIONS.

 TIME INCREMENT COMPLETED  5.000E-03,  FRACTION OF STEP COMPLETED  0.285    
 STEP TIME COMPLETED       0.285    ,  TOTAL TIME COMPLETED        0.285    


  INCREMENT    58 STARTS. ATTEMPT NUMBER  1, TIME INCREMENT  5.000E-03

  NUMBER OF EQUATIONS =        12     NUMBER OF RHS =    1
  NUMBER OF FLOATING PT. OPERATIONS =  3.78E+02

     CHECK POINT   START OF SOLVER    

     CHECK POINT  END OF SOLVER       

       ELAPSED USER TIME (SEC)      =   0.0000    
       ELAPSED SYSTEM TIME (SEC)    =  0.10000    
       ELAPSED TOTAL CPU TIME (SEC) =  0.10000    
       ELAPSED WALLCLOCK TIME (SEC) =          0

               CONVERGENCE CHECKS FOR EQUILIBRIUM ITERATION     1


 AVERAGE FORCE                      4.619E+03   TIME AVG. FORCE       3.431E+03
 LARGEST RESIDUAL FORCE            -2.461E-04   AT NODE          6   DOF  1
 LARGEST INCREMENT OF DISP.         1.500E-04   AT NODE          5   DOF  2
 LARGEST CORRECTION TO DISP.       -2.316E-07   AT NODE          2   DOF  1
          THE FORCE     EQUILIBRIUM EQUATIONS HAVE CONVERGED

 ITERATION SUMMARY FOR THE INCREMENT:   1 TOTAL ITERATIONS, OF WHICH
   0 ARE SEVERE DISCONTINUITY ITERATIONS AND  1 ARE EQUILIBRIUM ITERATIONS.

 TIME INCREMENT COMPLETED  5.000E-03,  FRACTION OF STEP COMPLETED  0.290    
 STEP TIME COMPLETED       0.290    ,  TOTAL TIME COMPLETED        0.290    


  INCREMENT    59 STARTS. ATTEMPT NUMBER  1, TIME INCREMENT  5.000E-03

  NUMBER OF EQUATIONS =        12     NUMBER OF RHS =    1
  NUMBER OF FLOATING PT. OPERATIONS =  3.78E+02

     CHECK POINT   START OF SOLVER    

     CHECK POINT  END OF SOLVER       

       ELAPSED USER TIME (SEC)      =   0.0000    
       ELAPSED SYSTEM TIME (SEC)    =   0.0000    
       ELAPSED TOTAL CPU TIME (SEC) =   0.0000    
       ELAPSED WALLCLOCK TIME (SEC) =          0

               CONVERGENCE CHECKS FOR EQUILIBRIUM ITERATION     1


 AVERAGE FORCE                      4.629E+03   TIME AVG. FORCE       3.452E+03
 LARGEST RESIDUAL FORCE            -8.819E-07   AT NODE          4   DOF  1
 LARGEST INCREMENT OF DISP.         1.500E-04   AT NODE          5   DOF  2
 LARGEST CORRECTION TO DISP.       -1.511E-07   AT NODE          6   DOF  1
          THE FORCE     EQUILIBRIUM RESPONSE WAS LINEAR IN THIS INCREMENT

 ITERATION SUMMARY FOR THE INCREMENT:   1 TOTAL ITERATIONS, OF WHICH
   0 ARE SEVERE DISCONTINUITY ITERATIONS AND  1 ARE EQUILIBRIUM ITERATIONS.

 TIME INCREMENT COMPLETED  5.000E-03,  FRACTION OF STEP COMPLETED  0.295    
 STEP TIME COMPLETED       0.295    ,  TOTAL TIME COMPLETED        0.295    


  INCREMENT    60 STARTS. ATTEMPT NUMBER  1, TIME INCREMENT  5.000E-03

  NUMBER OF EQUATIONS =        12     NUMBER OF RHS =    1
  NUMBER OF FLOATING PT. OPERATIONS =  3.78E+02

     CHECK POINT   START OF SOLVER    

     CHECK POINT  END OF SOLVER       

       ELAPSED USER TIME (SEC)      =   0.0000    
       ELAPSED SYSTEM TIME (SEC)    =   0.0000    
       ELAPSED TOTAL CPU TIME (SEC) =   0.0000    
       ELAPSED WALLCLOCK TIME (SEC) =          0

               CONVERGENCE CHECKS FOR EQUILIBRIUM ITERATION     1


 AVERAGE FORCE                      4.640E+03   TIME AVG. FORCE       3.471E+03
 LARGEST RESIDUAL FORCE            -1.324E-04   AT NODE          4   DOF  1
 LARGEST INCREMENT OF DISP.         1.500E-04   AT NODE          5   DOF  2
 LARGEST CORRECTION TO DISP.       -1.429E-07   AT NODE          4   DOF  1
          THE FORCE     EQUILIBRIUM EQUATIONS HAVE CONVERGED

 ITERATION SUMMARY FOR THE INCREMENT:   1 TOTAL ITERATIONS, OF WHICH
   0 ARE SEVERE DISCONTINUITY ITERATIONS AND  1 ARE EQUILIBRIUM ITERATIONS.

 TIME INCREMENT COMPLETED  5.000E-03,  FRACTION OF STEP COMPLETED  0.300    
 STEP TIME COMPLETED       0.300    ,  TOTAL TIME COMPLETED        0.300    


  INCREMENT    61 STARTS. ATTEMPT NUMBER  1, TIME INCREMENT  5.000E-03

  NUMBER OF EQUATIONS =        12     NUMBER OF RHS =    1
  NUMBER OF FLOATING PT. OPERATIONS =  3.78E+02

     CHECK POINT   START OF SOLVER    

     CHECK POINT  END OF SOLVER       

       ELAPSED USER TIME (SEC)      =   0.0000    
       ELAPSED SYSTEM TIME (SEC)    =   0.0000    
       ELAPSED TOTAL CPU TIME (SEC) =   0.0000    
       ELAPSED WALLCLOCK TIME (SEC) =          0

               CONVERGENCE CHECKS FOR EQUILIBRIUM ITERATION     1


 AVERAGE FORCE                      4.651E+03   TIME AVG. FORCE       3.491E+03
 LARGEST RESIDUAL FORCE            -7.101E-07   AT NODE          6   DOF  1
 LARGEST INCREMENT OF DISP.         1.500E-04   AT NODE          5   DOF  2
 LARGEST CORRECTION TO DISP.       -1.365E-07   AT NODE          4   DOF  1
          THE FORCE     EQUILIBRIUM RESPONSE WAS LINEAR IN THIS INCREMENT

 ITERATION SUMMARY FOR THE INCREMENT:   1 TOTAL ITERATIONS, OF WHICH
   0 ARE SEVERE DISCONTINUITY ITERATIONS AND  1 ARE EQUILIBRIUM ITERATIONS.

[...]
     CHECK POINT   START OF SOLVER    

     CHECK POINT  END OF SOLVER       

       ELAPSED USER TIME (SEC)      =   0.0000    
       ELAPSED SYSTEM TIME (SEC)    =   0.0000    
       ELAPSED TOTAL CPU TIME (SEC) =   0.0000    
       ELAPSED WALLCLOCK TIME (SEC) =          0

               CONVERGENCE CHECKS FOR EQUILIBRIUM ITERATION     1


 AVERAGE FORCE                      1.936E-15   TIME AVG. FORCE       4.337E+03
 LARGEST RESIDUAL FORCE            -2.853E-15   AT NODE          4   DOF  1
 LARGEST INCREMENT OF DISP.         2.296E-04   AT NODE          2   DOF  1
 LARGEST CORRECTION TO DISP.       -1.437E-18   AT NODE          4   DOF  2
          THERE IS ZERO FORCE     EVERYWHERE

 ITERATION SUMMARY FOR THE INCREMENT:   1 TOTAL ITERATIONS, OF WHICH
   0 ARE SEVERE DISCONTINUITY ITERATIONS AND  1 ARE EQUILIBRIUM ITERATIONS.

 TIME INCREMENT COMPLETED  5.000E-03,  FRACTION OF STEP COMPLETED  0.925    
 STEP TIME COMPLETED       0.925    ,  TOTAL TIME COMPLETED        0.925    


  INCREMENT   186 STARTS. ATTEMPT NUMBER  1, TIME INCREMENT  5.000E-03

  NUMBER OF EQUATIONS =        11     NUMBER OF RHS =    1
  NUMBER OF FLOATING PT. OPERATIONS =  2.54E+02

     CHECK POINT   START OF SOLVER    

     CHECK POINT  END OF SOLVER       

       ELAPSED USER TIME (SEC)      =   0.0000    
       ELAPSED SYSTEM TIME (SEC)    =   0.0000    
       ELAPSED TOTAL CPU TIME (SEC) =   0.0000    
       ELAPSED WALLCLOCK TIME (SEC) =          0

               CONVERGENCE CHECKS FOR EQUILIBRIUM ITERATION     1


 AVERAGE FORCE                      7.202E-14   TIME AVG. FORCE       4.337E+03
 LARGEST RESIDUAL FORCE             1.440E-13   AT NODE          4   DOF  2
 LARGEST INCREMENT OF DISP.         2.296E-04   AT NODE          2   DOF  1
 LARGEST CORRECTION TO DISP.        3.843E-18   AT NODE          3   DOF  2
          THERE IS ZERO FORCE     EVERYWHERE

 ITERATION SUMMARY FOR THE INCREMENT:   1 TOTAL ITERATIONS, OF WHICH
   0 ARE SEVERE DISCONTINUITY ITERATIONS AND  1 ARE EQUILIBRIUM ITERATIONS.

 TIME INCREMENT COMPLETED  5.000E-03,  FRACTION OF STEP COMPLETED  0.930    
 STEP TIME COMPLETED       0.930    ,  TOTAL TIME COMPLETED        0.930    


  INCREMENT   187 STARTS. ATTEMPT NUMBER  1, TIME INCREMENT  5.000E-03

  NUMBER OF EQUATIONS =        11     NUMBER OF RHS =    1
  NUMBER OF FLOATING PT. OPERATIONS =  2.54E+02

     CHECK POINT   START OF SOLVER    

     CHECK POINT  END OF SOLVER       

       ELAPSED USER TIME (SEC)      =   0.0000    
       ELAPSED SYSTEM TIME (SEC)    =   0.0000    
       ELAPSED TOTAL CPU TIME (SEC) =   0.0000    
       ELAPSED WALLCLOCK TIME (SEC) =          0

               CONVERGENCE CHECKS FOR EQUILIBRIUM ITERATION     1


 AVERAGE FORCE                      7.202E-14   TIME AVG. FORCE       4.337E+03
 LARGEST RESIDUAL FORCE            -1.440E-13   AT NODE          3   DOF  2
 LARGEST INCREMENT OF DISP.         2.296E-04   AT NODE          2   DOF  1
 LARGEST CORRECTION TO DISP.       -3.665E-18   AT NODE          4   DOF  2
          THERE IS ZERO FORCE     EVERYWHERE

 ITERATION SUMMARY FOR THE INCREMENT:   1 TOTAL ITERATIONS, OF WHICH
   0 ARE SEVERE DISCONTINUITY ITERATIONS AND  1 ARE EQUILIBRIUM ITERATIONS.

 TIME INCREMENT COMPLETED  5.000E-03,  FRACTION OF STEP COMPLETED  0.935    
 STEP TIME COMPLETED       0.935    ,  TOTAL TIME COMPLETED        0.935    


  INCREMENT   188 STARTS. ATTEMPT NUMBER  1, TIME INCREMENT  5.000E-03

  NUMBER OF EQUATIONS =        11     NUMBER OF RHS =    1
  NUMBER OF FLOATING PT. OPERATIONS =  2.54E+02

     CHECK POINT   START OF SOLVER    

     CHECK POINT  END OF SOLVER       

       ELAPSED USER TIME (SEC)      =   0.0000    
       ELAPSED SYSTEM TIME (SEC)    =   0.0000    
       ELAPSED TOTAL CPU TIME (SEC) =   0.0000    
       ELAPSED WALLCLOCK TIME (SEC) =          0

               CONVERGENCE CHECKS FOR EQUILIBRIUM ITERATION     1


 AVERAGE FORCE                      7.105E-14   TIME AVG. FORCE       4.337E+03
 LARGEST RESIDUAL FORCE            -7.299E-14   AT NODE          3   DOF  2
 LARGEST INCREMENT OF DISP.         2.296E-04   AT NODE          2   DOF  1
 LARGEST CORRECTION TO DISP.        4.536E-18   AT NODE          4   DOF  2
          THERE IS ZERO FORCE     EVERYWHERE

 ITERATION SUMMARY FOR THE INCREMENT:   1 TOTAL ITERATIONS, OF WHICH
   0 ARE SEVERE DISCONTINUITY ITERATIONS AND  1 ARE EQUILIBRIUM ITERATIONS.

 TIME INCREMENT COMPLETED  5.000E-03,  FRACTION OF STEP COMPLETED  0.940    
 STEP TIME COMPLETED       0.940    ,  TOTAL TIME COMPLETED        0.940    


  INCREMENT   189 STARTS. ATTEMPT NUMBER  1, TIME INCREMENT  5.000E-03

  NUMBER OF EQUATIONS =        11     NUMBER OF RHS =    1
  NUMBER OF FLOATING PT. OPERATIONS =  2.54E+02

     CHECK POINT   START OF SOLVER    

     CHECK POINT  END OF SOLVER       

       ELAPSED USER TIME (SEC)      =   0.0000    
       ELAPSED SYSTEM TIME (SEC)    =   0.0000    
       ELAPSED TOTAL CPU TIME (SEC) =   0.0000    
       ELAPSED WALLCLOCK TIME (SEC) =          0

               CONVERGENCE CHECKS FOR EQUILIBRIUM ITERATION     1


 AVERAGE FORCE                      7.202E-14   TIME AVG. FORCE       4.337E+03
 LARGEST RESIDUAL FORCE            -1.440E-13   AT NODE          3   DOF  2
 LARGEST INCREMENT OF DISP.         2.296E-04   AT NODE          2   DOF  1
 LARGEST CORRECTION TO DISP.       -7.232E-18   AT NODE          3   DOF  2
          THERE IS ZERO FORCE     EVERYWHERE

 ITERATION SUMMARY FOR THE INCREMENT:   1 TOTAL ITERATIONS, OF WHICH
   0 ARE SEVERE DISCONTINUITY ITERATIONS AND  1 ARE EQUILIBRIUM ITERATIONS.

 TIME INCREMENT COMPLETED  5.000E-03,  FRACTION OF STEP COMPLETED  0.945    
 STEP TIME COMPLETED       0.945    ,  TOTAL TIME COMPLETED        0.945    


  INCREMENT   190 STARTS. ATTEMPT NUMBER  1, TIME INCREMENT  5.000E-03

  NUMBER OF EQUATIONS =        11     NUMBER OF RHS =    1
  NUMBER OF FLOATING PT. OPERATIONS =  2.54E+02

     CHECK POINT   START OF SOLVER    

     CHECK POINT  END OF SOLVER       

       ELAPSED USER TIME (SEC)      =   0.0000    
       ELAPSED SYSTEM TIME (SEC)    =   0.0000    
       ELAPSED TOTAL CPU TIME (SEC) =   0.0000    
       ELAPSED WALLCLOCK TIME (SEC) =          0

               CONVERGENCE CHECKS FOR EQUILIBRIUM ITERATION     1


 AVERAGE FORCE                      7.105E-14   TIME AVG. FORCE       4.337E+03
 LARGEST RESIDUAL FORCE             7.391E-14   AT NODE          6   DOF  1
 LARGEST INCREMENT OF DISP.         2.296E-04   AT NODE          2   DOF  1
 LARGEST CORRECTION TO DISP.        3.762E-18   AT NODE          4   DOF  2
          THERE IS ZERO FORCE     EVERYWHERE

 ITERATION SUMMARY FOR THE INCREMENT:   1 TOTAL ITERATIONS, OF WHICH
   0 ARE SEVERE DISCONTINUITY ITERATIONS AND  1 ARE EQUILIBRIUM ITERATIONS.

 TIME INCREMENT COMPLETED  5.000E-03,  FRACTION OF STEP COMPLETED  0.950    
 STEP TIME COMPLETED       0.950    ,  TOTAL TIME COMPLETED        0.950    


  INCREMENT   191 STARTS. ATTEMPT NUMBER  1, TIME INCREMENT  5.000E-03

  NUMBER OF EQUATIONS =        11     NUMBER OF RHS =    1
  NUMBER OF FLOATING PT. OPERATIONS =  2.54E+02

     CHECK POINT   START OF SOLVER    

     CHECK POINT  END OF SOLVER       

       ELAPSED USER TIME (SEC)      =   0.0000    
       ELAPSED SYSTEM TIME (SEC)    =   0.0000    
       ELAPSED TOTAL CPU TIME (SEC) =   0.0000    
       ELAPSED WALLCLOCK TIME (SEC) =          0

               CONVERGENCE CHECKS FOR EQUILIBRIUM ITERATION     1


 AVERAGE FORCE                      7.202E-14   TIME AVG. FORCE       4.337E+03
 LARGEST RESIDUAL FORCE            -1.440E-13   AT NODE          3   DOF  2
 LARGEST INCREMENT OF DISP.         2.296E-04   AT NODE          2   DOF  1
 LARGEST CORRECTION TO DISP.        4.909E-18   AT NODE          3   DOF  2
          THERE IS ZERO FORCE     EVERYWHERE

 ITERATION SUMMARY FOR THE INCREMENT:   1 TOTAL ITERATIONS, OF WHICH
   0 ARE SEVERE DISCONTINUITY ITERATIONS AND  1 ARE EQUILIBRIUM ITERATIONS.

 TIME INCREMENT COMPLETED  5.000E-03,  FRACTION OF STEP COMPLETED  0.955    
 STEP TIME COMPLETED       0.955    ,  TOTAL TIME COMPLETED        0.955    


  INCREMENT   192 STARTS. ATTEMPT NUMBER  1, TIME INCREMENT  5.000E-03

  NUMBER OF EQUATIONS =        11     NUMBER OF RHS =    1
  NUMBER OF FLOATING PT. OPERATIONS =  2.54E+02

     CHECK POINT   START OF SOLVER    

     CHECK POINT  END OF SOLVER       

       ELAPSED USER TIME (SEC)      =   0.0000    
       ELAPSED SYSTEM TIME (SEC)    =   0.0000    
       ELAPSED TOTAL CPU TIME (SEC) =   0.0000    
       ELAPSED WALLCLOCK TIME (SEC) =          0

               CONVERGENCE CHECKS FOR EQUILIBRIUM ITERATION     1


 AVERAGE FORCE                      7.105E-14   TIME AVG. FORCE       4.337E+03
 LARGEST RESIDUAL FORCE            -7.485E-14   AT NODE          4   DOF  2
 LARGEST INCREMENT OF DISP.         2.296E-04   AT NODE          2   DOF  1
 LARGEST CORRECTION TO DISP.       -4.043E-18   AT NODE          4   DOF  2
          THERE IS ZERO FORCE     EVERYWHERE

 ITERATION SUMMARY FOR THE INCREMENT:   1 TOTAL ITERATIONS, OF WHICH
   0 ARE SEVERE DISCONTINUITY ITERATIONS AND  1 ARE EQUILIBRIUM ITERATIONS.

 TIME INCREMENT COMPLETED  5.000E-03,  FRACTION OF STEP COMPLETED  0.960    
 STEP TIME COMPLETED       0.960    ,  TOTAL TIME COMPLETED        0.960    


  INCREMENT   193 STARTS. ATTEMPT NUMBER  1, TIME INCREMENT  5.000E-03

  NUMBER OF EQUATIONS =        11     NUMBER OF RHS =    1
  NUMBER OF FLOATING PT. OPERATIONS =  2.54E+02

     CHECK POINT   START OF SOLVER    

     CHECK POINT  END OF SOLVER       

       ELAPSED USER TIME (SEC)      =   0.0000    
       ELAPSED SYSTEM TIME (SEC)    =   0.0000    
       ELAPSED TOTAL CPU TIME (SEC) =   0.0000    
       ELAPSED WALLCLOCK TIME (SEC) =          0

               CONVERGENCE CHECKS FOR EQUILIBRIUM ITERATION     1


 AVERAGE FORCE                      7.202E-14   TIME AVG. FORCE       4.337E+03
 LARGEST RESIDUAL FORCE            -1.440E-13   AT NODE          3   DOF  2
 LARGEST INCREMENT OF DISP.         2.296E-04   AT NODE          2   DOF  1
 LARGEST CORRECTION TO DISP.        5.871E-19   AT NODE          3   DOF  2
          THERE IS ZERO FORCE     EVERYWHERE

 ITERATION SUMMARY FOR THE INCREMENT:   1 TOTAL ITERATIONS, OF WHICH
   0 ARE SEVERE DISCONTINUITY ITERATIONS AND  1 ARE EQUILIBRIUM ITERATIONS.

 TIME INCREMENT COMPLETED  5.000E-03,  FRACTION OF STEP COMPLETED  0.965    
 STEP TIME COMPLETED       0.965    ,  TOTAL TIME COMPLETED        0.965    


  INCREMENT   194 STARTS. ATTEMPT NUMBER  1, TIME INCREMENT  5.000E-03

  NUMBER OF EQUATIONS =        11     NUMBER OF RHS =    1
  NUMBER OF FLOATING PT. OPERATIONS =  2.54E+02

     CHECK POINT   START OF SOLVER    

     CHECK POINT  END OF SOLVER       

       ELAPSED USER TIME (SEC)      =   0.0000    
       ELAPSED SYSTEM TIME (SEC)    =   0.0000    
       ELAPSED TOTAL CPU TIME (SEC) =   0.0000    
       ELAPSED WALLCLOCK TIME (SEC) =          0

               CONVERGENCE CHECKS FOR EQUILIBRIUM ITERATION     1


 AVERAGE FORCE                      7.105E-14   TIME AVG. FORCE       4.337E+03
 LARGEST RESIDUAL FORCE            -7.299E-14   AT NODE          3   DOF  2
 LARGEST INCREMENT OF DISP.         2.296E-04   AT NODE          2   DOF  1
 LARGEST CORRECTION TO DISP.       -4.921E-18   AT NODE          3   DOF  2
          THERE IS ZERO FORCE     EVERYWHERE

 ITERATION SUMMARY FOR THE INCREMENT:   1 TOTAL ITERATIONS, OF WHICH
   0 ARE SEVERE DISCONTINUITY ITERATIONS AND  1 ARE EQUILIBRIUM ITERATIONS.

 TIME INCREMENT COMPLETED  5.000E-03,  FRACTION OF STEP COMPLETED  0.970    
 STEP TIME COMPLETED       0.970    ,  TOTAL TIME COMPLETED        0.970    


  INCREMENT   195 STARTS. ATTEMPT NUMBER  1, TIME INCREMENT  5.000E-03

  NUMBER OF EQUATIONS =        11     NUMBER OF RHS =    1
  NUMBER OF FLOATING PT. OPERATIONS =  2.54E+02

     CHECK POINT   START OF SOLVER    

     CHECK POINT  END OF SOLVER       

       ELAPSED USER TIME (SEC)      =   0.0000    
       ELAPSED SYSTEM TIME (SEC)    =   0.0000    
       ELAPSED TOTAL CPU TIME (SEC) =   0.0000    
       ELAPSED WALLCLOCK TIME (SEC) =          0

               CONVERGENCE CHECKS FOR EQUILIBRIUM ITERATION     1


 AVERAGE FORCE                      7.202E-14   TIME AVG. FORCE       4.337E+03
 LARGEST RESIDUAL FORCE            -1.440E-13   AT NODE          3   DOF  2
 LARGEST INCREMENT OF DISP.         2.296E-04   AT NODE          2   DOF  1
 LARGEST CORRECTION TO DISP.        4.048E-18   AT NODE          4   DOF  2
          THERE IS ZERO FORCE     EVERYWHERE

 ITERATION SUMMARY FOR THE INCREMENT:   1 TOTAL ITERATIONS, OF WHICH
   0 ARE SEVERE DISCONTINUITY ITERATIONS AND  1 ARE EQUILIBRIUM ITERATIONS.

 TIME INCREMENT COMPLETED  5.000E-03,  FRACTION OF STEP COMPLETED  0.975    
 STEP TIME COMPLETED       0.975    ,  TOTAL TIME COMPLETED        0.975    


  INCREMENT   196 STARTS. ATTEMPT NUMBER  1, TIME INCREMENT  5.000E-03

  NUMBER OF EQUATIONS =        11     NUMBER OF RHS =    1
  NUMBER OF FLOATING PT. OPERATIONS =  2.54E+02

     CHECK POINT   START OF SOLVER    

     CHECK POINT  END OF SOLVER       

       ELAPSED USER TIME (SEC)      =   0.0000    
       ELAPSED SYSTEM TIME (SEC)    =   0.0000    
       ELAPSED TOTAL CPU TIME (SEC) =   0.0000    
       ELAPSED WALLCLOCK TIME (SEC) =          0

               CONVERGENCE CHECKS FOR EQUILIBRIUM ITERATION     1


 AVERAGE FORCE                      7.105E-14   TIME AVG. FORCE       4.337E+03
 LARGEST RESIDUAL FORCE            -7.485E-14   AT NODE          4   DOF  2
 LARGEST INCREMENT OF DISP.         2.296E-04   AT NODE          2   DOF  1
 LARGEST CORRECTION TO DISP.        3.762E-18   AT NODE          4   DOF  2
          THERE IS ZERO FORCE     EVERYWHERE

 ITERATION SUMMARY FOR THE INCREMENT:   1 TOTAL ITERATIONS, OF WHICH
   0 ARE SEVERE DISCONTINUITY ITERATIONS AND  1 ARE EQUILIBRIUM ITERATIONS.

 TIME INCREMENT COMPLETED  5.000E-03,  FRACTION OF STEP COMPLETED  0.980    
 STEP TIME COMPLETED       0.980    ,  TOTAL TIME COMPLETED        0.980    


  INCREMENT   197 STARTS. ATTEMPT NUMBER  1, TIME INCREMENT  5.000E-03

  NUMBER OF EQUATIONS =        11     NUMBER OF RHS =    1
  NUMBER OF FLOATING PT. OPERATIONS =  2.54E+02

     CHECK POINT   START OF SOLVER    

     CHECK POINT  END OF SOLVER       

       ELAPSED USER TIME (SEC)      =   0.0000    
       ELAPSED SYSTEM TIME (SEC)    =   0.0000    
       ELAPSED TOTAL CPU TIME (SEC) =   0.0000    
       ELAPSED WALLCLOCK TIME (SEC) =          0

               CONVERGENCE CHECKS FOR EQUILIBRIUM ITERATION     1


 AVERAGE FORCE                      7.202E-14   TIME AVG. FORCE       4.337E+03
 LARGEST RESIDUAL FORCE            -1.440E-13   AT NODE          3   DOF  2
 LARGEST INCREMENT OF DISP.         2.296E-04   AT NODE          2   DOF  1
 LARGEST CORRECTION TO DISP.        1.453E-18   AT NODE          3   DOF  2
          THERE IS ZERO FORCE     EVERYWHERE

 ITERATION SUMMARY FOR THE INCREMENT:   1 TOTAL ITERATIONS, OF WHICH
   0 ARE SEVERE DISCONTINUITY ITERATIONS AND  1 ARE EQUILIBRIUM ITERATIONS.

 TIME INCREMENT COMPLETED  5.000E-03,  FRACTION OF STEP COMPLETED  0.985    
 STEP TIME COMPLETED       0.985    ,  TOTAL TIME COMPLETED        0.985    


  INCREMENT   198 STARTS. ATTEMPT NUMBER  1, TIME INCREMENT  5.000E-03

  NUMBER OF EQUATIONS =        11     NUMBER OF RHS =    1
  NUMBER OF FLOATING PT. OPERATIONS =  2.54E+02

     CHECK POINT   START OF SOLVER    

     CHECK POINT  END OF SOLVER       

       ELAPSED USER TIME (SEC)      =   0.0000    
       ELAPSED SYSTEM TIME (SEC)    =   0.0000    
       ELAPSED TOTAL CPU TIME (SEC) =   0.0000    
       ELAPSED WALLCLOCK TIME (SEC) =          0

               CONVERGENCE CHECKS FOR EQUILIBRIUM ITERATION     1


 AVERAGE FORCE                      7.105E-14   TIME AVG. FORCE       4.337E+03
 LARGEST RESIDUAL FORCE            -7.485E-14   AT NODE          4   DOF  2
 LARGEST INCREMENT OF DISP.         2.296E-04   AT NODE          2   DOF  1
 LARGEST CORRECTION TO DISP.       -4.036E-18   AT NODE          4   DOF  2
          THERE IS ZERO FORCE     EVERYWHERE

 ITERATION SUMMARY FOR THE INCREMENT:   1 TOTAL ITERATIONS, OF WHICH
   0 ARE SEVERE DISCONTINUITY ITERATIONS AND  1 ARE EQUILIBRIUM ITERATIONS.

 TIME INCREMENT COMPLETED  5.000E-03,  FRACTION OF STEP COMPLETED  0.990    
 STEP TIME COMPLETED       0.990    ,  TOTAL TIME COMPLETED        0.990    


  INCREMENT   199 STARTS. ATTEMPT NUMBER  1, TIME INCREMENT  5.000E-03

  NUMBER OF EQUATIONS =        11     NUMBER OF RHS =    1
  NUMBER OF FLOATING PT. OPERATIONS =  2.54E+02

     CHECK POINT   START OF SOLVER    

     CHECK POINT  END OF SOLVER       

       ELAPSED USER TIME (SEC)      =   0.0000    
       ELAPSED SYSTEM TIME (SEC)    =   0.0000    
       ELAPSED TOTAL CPU TIME (SEC) =   0.0000    
       ELAPSED WALLCLOCK TIME (SEC) =          0

               CONVERGENCE CHECKS FOR EQUILIBRIUM ITERATION     1


 AVERAGE FORCE                      7.202E-14   TIME AVG. FORCE       4.337E+03
 LARGEST RESIDUAL FORCE            -1.440E-13   AT NODE          3   DOF  2
 LARGEST INCREMENT OF DISP.         2.296E-04   AT NODE          2   DOF  1
 LARGEST CORRECTION TO DISP.       -3.771E-18   AT NODE          4   DOF  2
          THERE IS ZERO FORCE     EVERYWHERE

 ITERATION SUMMARY FOR THE INCREMENT:   1 TOTAL ITERATIONS, OF WHICH
   0 ARE SEVERE DISCONTINUITY ITERATIONS AND  1 ARE EQUILIBRIUM ITERATIONS.

 TIME INCREMENT COMPLETED  5.000E-03,  FRACTION OF STEP COMPLETED  0.995    
 STEP TIME COMPLETED       0.995    ,  TOTAL TIME COMPLETED        0.995    


  INCREMENT   200 STARTS. ATTEMPT NUMBER  1, TIME INCREMENT  5.000E-03

  NUMBER OF EQUATIONS =        11     NUMBER OF RHS =    1
  NUMBER OF FLOATING PT. OPERATIONS =  2.54E+02

     CHECK POINT   START OF SOLVER    

     CHECK POINT  END OF SOLVER       

       ELAPSED USER TIME (SEC)      =   0.0000    
       ELAPSED SYSTEM TIME (SEC)    =   0.0000    
       ELAPSED TOTAL CPU TIME (SEC) =   0.0000    
       ELAPSED WALLCLOCK TIME (SEC) =          0

               CONVERGENCE CHECKS FOR EQUILIBRIUM ITERATION     1


 AVERAGE FORCE                      7.105E-14   TIME AVG. FORCE       4.337E+03
 LARGEST RESIDUAL FORCE             7.391E-14   AT NODE          6   DOF  1
 LARGEST INCREMENT OF DISP.         2.296E-04   AT NODE          2   DOF  1
 LARGEST CORRECTION TO DISP.        7.862E-18   AT NODE          4   DOF  2
          THERE IS ZERO FORCE     EVERYWHERE

 ITERATION SUMMARY FOR THE INCREMENT:   1 TOTAL ITERATIONS, OF WHICH
   0 ARE SEVERE DISCONTINUITY ITERATIONS AND  1 ARE EQUILIBRIUM ITERATIONS.

 TIME INCREMENT COMPLETED  5.000E-03,  FRACTION OF STEP COMPLETED   1.00    
 STEP TIME COMPLETED        1.00    ,  TOTAL TIME COMPLETED         1.00    


          THE ANALYSIS HAS BEEN COMPLETED



     ANALYSIS SUMMARY:
     TOTAL OF        200  INCREMENTS
                       0  CUTBACKS IN AUTOMATIC INCREMENTATION
                     207  ITERATIONS INCLUDING CONTACT ITERATIONS IF PRESENT
                     207  PASSES THROUGH THE EQUATION SOLVER OF WHICH 
                      94  INVOLVE MATRIX DECOMPOSITION, INCLUDING
                       0  DECOMPOSITION(S) OF THE MASS MATRIX
                       1  REORDERING OF EQUATIONS TO MINIMIZE WAVEFRONT
                       0  ADDITIONAL RESIDUAL EVALUATIONS FOR LINE SEARCHES
                       0  ADDITIONAL OPERATOR EVALUATIONS FOR LINE SEARCHES
                       1  WARNING MESSAGES DURING USER INPUT PROCESSING
                      32  WARNING MESSAGES DURING ANALYSIS
                       0  ANALYSIS WARNINGS ARE NUMERICAL PROBLEM MESSAGES
                      32  ANALYSIS WARNINGS ARE NEGATIVE EIGENVALUE MESSAGES
                       0  ERROR MESSAGES



     JOB TIME SUMMARY
       USER TIME (SEC)      =   1.7000    
       SYSTEM TIME (SEC)    =  0.90000    
       TOTAL CPU TIME (SEC) =   2.6000    
       WALLCLOCK TIME (SEC) =          5
